Ácido Elágico
     RDKit          3D

 28 31  0  0  0  0  0  0  0  0999 V2000
   -3.4516   -0.5646    1.2828 O   0  0  0  0  0  0  0  0  0  0  0  0
   -2.2860   -0.4221    0.9403 C   0  0  0  0  0  0  0  0  0  0  0  0
   -1.2474   -0.4072    1.8772 O   0  0  0  0  0  0  0  0  0  0  0  0
    0.1071   -0.2450    1.5178 C   0  0  0  0  0  0  0  0  0  0  0  0
    1.0684   -0.2433    2.5186 C   0  0  0  0  0  0  0  0  0  0  0  0
    0.7462   -0.3932    3.8374 O   0  0  0  0  0  0  0  0  0  0  0  0
    2.4073   -0.0841    2.1747 C   0  0  0  0  0  0  0  0  0  0  0  0
    3.3654   -0.0800    3.1461 O   0  0  0  0  0  0  0  0  0  0  0  0
    2.7932    0.0727    0.8465 C   0  0  0  0  0  0  0  0  0  0  0  0
    1.8128    0.0692   -0.1547 C   0  0  0  0  0  0  0  0  0  0  0  0
    2.1982    0.2348   -1.5802 C   0  0  0  0  0  0  0  0  0  0  0  0
    3.3638    0.3774   -1.9228 O   0  0  0  0  0  0  0  0  0  0  0  0
    1.1596    0.2199   -2.5171 O   0  0  0  0  0  0  0  0  0  0  0  0
   -0.1949    0.0578   -2.1577 C   0  0  0  0  0  0  0  0  0  0  0  0
   -1.1562    0.0561   -3.1586 C   0  0  0  0  0  0  0  0  0  0  0  0
   -0.8340    0.2060   -4.4773 O   0  0  0  0  0  0  0  0  0  0  0  0
   -2.4951   -0.1032   -2.8146 C   0  0  0  0  0  0  0  0  0  0  0  0
   -3.4532   -0.1072   -3.7861 O   0  0  0  0  0  0  0  0  0  0  0  0
   -2.8809   -0.2600   -1.4865 C   0  0  0  0  0  0  0  0  0  0  0  0
   -1.9005   -0.2565   -0.4853 C   0  0  0  0  0  0  0  0  0  0  0  0
   -0.5539   -0.0970   -0.8238 C   0  0  0  0  0  0  0  0  0  0  0  0
    0.4661   -0.0903    0.1838 C   0  0  0  0  0  0  0  0  0  0  0  0
   -0.2250   -0.4908    3.8881 H   0  0  0  0  0  0  0  0  0  0  0  0
    2.8827   -0.2023    3.9888 H   0  0  0  0  0  0  0  0  0  0  0  0
    3.8454    0.1958    0.5993 H   0  0  0  0  0  0  0  0  0  0  0  0
    0.1372    0.3035   -4.5281 H   0  0  0  0  0  0  0  0  0  0  0  0
   -2.9704    0.0151   -4.6288 H   0  0  0  0  0  0  0  0  0  0  0  0
   -3.9332   -0.3830   -1.2392 H   0  0  0  0  0  0  0  0  0  0  0  0
  1  2  2  0
  2  3  1  0
  3  4  1  0
  4  5  2  0
  5  6  1  0
  5  7  1  0
  7  8  1  0
  7  9  2  0
  9 10  1  0
 10 11  1  0
 11 12  2  0
 11 13  1  0
 13 14  1  0
 14 15  1  0
 15 16  1  0
 15 17  2  0
 17 18  1  0
 17 19  1  0
 19 20  2  0
 20 21  1  0
 21 22  1  0
 20  2  1  0
 22  4  1  0
 22 10  2  0
 21 14  2  0
  6 23  1  0
  8 24  1  0
  9 25  1  0
 16 26  1  0
 18 27  1  0
 19 28  1  0
M  END
>  <clase>  (1) 
Ác. Hidroxibenzoico

>  <carga>  (1) 
0

>  <InChIKey>  (1) 
AFSDNFLWKVMVRB-UHFFFAOYSA-N

>  <fuente>  (1) 
Modelo NEP

$$$$
