Ácido Elágico
     RDKit          3D

 28 31  0  0  0  0  0  0  0  0999 V2000
    0.9501    2.3171   -2.3816 O   0  0  0  0  0  0  0  0  0  0  0  0
    0.4428    1.5909   -1.5381 C   0  0  0  0  0  0  0  0  0  0  0  0
   -0.0882    2.1105   -0.3529 O   0  0  0  0  0  0  0  0  0  0  0  0
   -0.6803    1.3029    0.6408 C   0  0  0  0  0  0  0  0  0  0  0  0
   -1.1802    1.9094    1.7845 C   0  0  0  0  0  0  0  0  0  0  0  0
   -1.1176    3.2599    1.9786 O   0  0  0  0  0  0  0  0  0  0  0  0
   -1.7661    1.1217    2.7707 C   0  0  0  0  0  0  0  0  0  0  0  0
   -2.2627    1.7018    3.9015 O   0  0  0  0  0  0  0  0  0  0  0  0
   -1.8569   -0.2597    2.6258 C   0  0  0  0  0  0  0  0  0  0  0  0
   -1.3483   -0.8599    1.4662 C   0  0  0  0  0  0  0  0  0  0  0  0
   -1.4328   -2.3326    1.2870 C   0  0  0  0  0  0  0  0  0  0  0  0
   -1.9401   -3.0588    2.1305 O   0  0  0  0  0  0  0  0  0  0  0  0
   -0.9018   -2.8522    0.1018 O   0  0  0  0  0  0  0  0  0  0  0  0
   -0.3098   -2.0446   -0.8920 C   0  0  0  0  0  0  0  0  0  0  0  0
    0.1902   -2.6511   -2.0356 C   0  0  0  0  0  0  0  0  0  0  0  0
    0.1276   -4.0016   -2.2298 O   0  0  0  0  0  0  0  0  0  0  0  0
    0.7761   -1.8634   -3.0218 C   0  0  0  0  0  0  0  0  0  0  0  0
    1.2727   -2.4435   -4.1526 O   0  0  0  0  0  0  0  0  0  0  0  0
    0.8669   -0.4821   -2.8769 C   0  0  0  0  0  0  0  0  0  0  0  0
    0.3583    0.1181   -1.7173 C   0  0  0  0  0  0  0  0  0  0  0  0
   -0.2315   -0.6671   -0.7228 C   0  0  0  0  0  0  0  0  0  0  0  0
   -0.7585   -0.0746    0.4717 C   0  0  0  0  0  0  0  0  0  0  0  0
   -0.6800    3.6445    1.1939 H   0  0  0  0  0  0  0  0  0  0  0  0
   -2.0971    2.6608    3.7968 H   0  0  0  0  0  0  0  0  0  0  0  0
   -2.3189   -0.8570    3.4089 H   0  0  0  0  0  0  0  0  0  0  0  0
   -0.3100   -4.3863   -1.4450 H   0  0  0  0  0  0  0  0  0  0  0  0
    1.1071   -3.4025   -4.0479 H   0  0  0  0  0  0  0  0  0  0  0  0
    1.3289    0.1153   -3.6600 H   0  0  0  0  0  0  0  0  0  0  0  0
  1  2  2  0
  2  3  1  0
  3  4  1  0
  4  5  2  0
  5  6  1  0
  5  7  1  0
  7  8  1  0
  7  9  2  0
  9 10  1  0
 10 11  1  0
 11 12  2  0
 11 13  1  0
 13 14  1  0
 14 15  1  0
 15 16  1  0
 15 17  2  0
 17 18  1  0
 17 19  1  0
 19 20  2  0
 20 21  1  0
 21 22  1  0
 20  2  1  0
 22  4  1  0
 22 10  2  0
 21 14  2  0
  6 23  1  0
  8 24  1  0
  9 25  1  0
 16 26  1  0
 18 27  1  0
 19 28  1  0
M  END
>  <clase>  (1) 
Ác. Hidroxibenzoico

>  <carga>  (1) 
0

>  <InChIKey>  (1) 
AFSDNFLWKVMVRB-UHFFFAOYSA-N

$$$$
