Petunidín-3-glucósido
     RDKit          3D

 57 60  0  0  0  0  0  0  0  0999 V2000
   -3.2455    0.0008    6.4418 O   0  0  0  0  0  0  0  0  0  0  0  0
   -2.7229   -0.6426    5.3641 C   0  0  0  0  0  0  0  0  0  0  0  0
   -2.5127   -2.0133    5.3605 C   0  0  0  0  0  0  0  0  0  0  0  0
   -1.9676   -2.6264    4.2287 C   0  0  0  0  0  0  0  0  0  0  0  0
   -1.8073   -3.9785    4.3397 O   0  0  0  0  0  0  0  0  0  0  0  0
   -1.6360   -1.8814    3.0766 C   0  0  0  0  0  0  0  0  0  0  0  0
   -1.1315   -2.4251    1.8863 C   0  0  0  0  0  0  0  0  0  0  0  0
   -0.9333   -1.6213    0.7650 C   0  0  0  0  0  0  0  0  0  0  0  0
   -0.5329   -2.2624   -0.3811 O   0  0  0  0  0  0  0  0  0  0  0  0
    0.9154   -2.2697   -0.4956 C   0  0  2  0  0  0  0  0  0  0  0  0
    1.3421   -0.9357   -0.7836 O   0  0  0  0  0  0  0  0  0  0  0  0
    2.5659   -0.8078   -1.5299 C   0  0  2  0  0  0  0  0  0  0  0  0
    2.2569   -0.4178   -2.9831 C   0  0  0  0  0  0  0  0  0  0  0  0
    3.4641   -0.2190   -3.7038 O   0  0  0  0  0  0  0  0  0  0  0  0
    3.4938   -2.0306   -1.4079 C   0  0  1  0  0  0  0  0  0  0  0  0
    3.8758   -2.1546   -0.0233 O   0  0  0  0  0  0  0  0  0  0  0  0
    2.7952   -3.3385   -1.8082 C   0  0  2  0  0  0  0  0  0  0  0  0
    3.0156   -3.6598   -3.1862 O   0  0  0  0  0  0  0  0  0  0  0  0
    1.2775   -3.2867   -1.5876 C   0  0  1  0  0  0  0  0  0  0  0  0
    0.8039   -4.5999   -1.2353 O   0  0  0  0  0  0  0  0  0  0  0  0
   -1.2268   -0.2476    0.7937 C   0  0  0  0  0  0  0  0  0  0  0  0
   -1.4956    0.3687    2.0574 O   0  0  0  0  0  0  0  0  0  0  0  0
   -1.8614   -0.4907    3.1289 C   0  0  0  0  0  0  0  0  0  0  0  0
   -2.3964    0.1225    4.2578 C   0  0  0  0  0  0  0  0  0  0  0  0
   -1.2435    0.6936   -0.3398 C   0  0  0  0  0  0  0  0  0  0  0  0
   -1.5251    0.2926   -1.6590 C   0  0  0  0  0  0  0  0  0  0  0  0
   -1.5146    1.2210   -2.6903 C   0  0  0  0  0  0  0  0  0  0  0  0
   -1.7681    0.7953   -3.9606 O   0  0  0  0  0  0  0  0  0  0  0  0
   -1.2485    2.5584   -2.4400 C   0  0  0  0  0  0  0  0  0  0  0  0
   -1.2546    3.4243   -3.5006 O   0  0  0  0  0  0  0  0  0  0  0  0
   -0.9873    3.0026   -1.1456 C   0  0  0  0  0  0  0  0  0  0  0  0
   -0.7474    4.3453   -1.0357 O   0  0  0  0  0  0  0  0  0  0  0  0
   -0.5044    4.8596    0.2690 C   0  0  0  0  0  0  0  0  0  0  0  0
   -0.9878    2.0695   -0.1037 C   0  0  0  0  0  0  0  0  0  0  0  0
   -3.4630   -0.6358    7.1484 H   0  0  0  0  0  0  0  0  0  0  0  0
   -2.7611   -2.6222    6.2285 H   0  0  0  0  0  0  0  0  0  0  0  0
   -1.3118   -4.3745    3.6051 H   0  0  0  0  0  0  0  0  0  0  0  0
   -0.9392   -3.4919    1.7846 H   0  0  0  0  0  0  0  0  0  0  0  0
    1.3427   -2.5947    0.4629 H   0  0  0  0  0  0  0  0  0  0  0  0
    3.0911    0.0398   -1.0710 H   0  0  0  0  0  0  0  0  0  0  0  0
    1.6565   -1.1741   -3.4951 H   0  0  0  0  0  0  0  0  0  0  0  0
    1.6802    0.5132   -3.0013 H   0  0  0  0  0  0  0  0  0  0  0  0
    3.2174    0.0577   -4.6055 H   0  0  0  0  0  0  0  0  0  0  0  0
    4.4140   -1.8938   -1.9863 H   0  0  0  0  0  0  0  0  0  0  0  0
    4.5839   -1.5024    0.1382 H   0  0  0  0  0  0  0  0  0  0  0  0
    3.2173   -4.1722   -1.2318 H   0  0  0  0  0  0  0  0  0  0  0  0
    3.9764   -3.7636   -3.3215 H   0  0  0  0  0  0  0  0  0  0  0  0
    0.7542   -3.0239   -2.5153 H   0  0  0  0  0  0  0  0  0  0  0  0
    1.0393   -5.1781   -1.9882 H   0  0  0  0  0  0  0  0  0  0  0  0
   -2.5437    1.1970    4.2608 H   0  0  0  0  0  0  0  0  0  0  0  0
   -1.7625   -0.7384   -1.9141 H   0  0  0  0  0  0  0  0  0  0  0  0
   -1.7526    1.6073   -4.5104 H   0  0  0  0  0  0  0  0  0  0  0  0
   -1.0667    4.3053   -3.1159 H   0  0  0  0  0  0  0  0  0  0  0  0
    0.4093    4.4311    0.6938 H   0  0  0  0  0  0  0  0  0  0  0  0
   -0.3591    5.9401    0.1795 H   0  0  0  0  0  0  0  0  0  0  0  0
   -1.3641    4.6920    0.9269 H   0  0  0  0  0  0  0  0  0  0  0  0
   -0.7843    2.3881    0.9170 H   0  0  0  0  0  0  0  0  0  0  0  0
  1  2  1  0
  2  3  2  0
  3  4  1  0
  4  5  1  0
  4  6  2  0
  6  7  1  0
  7  8  2  0
  8  9  1  0
  9 10  1  0
 10 11  1  0
 11 12  1  0
 12 13  1  0
 13 14  1  0
 12 15  1  0
 15 16  1  0
 15 17  1  0
 17 18  1  0
 17 19  1  0
 19 20  1  0
  8 21  1  0
 21 22  2  0
 22 23  1  0
 23 24  2  0
 21 25  1  0
 25 26  1  0
 26 27  2  0
 27 28  1  0
 27 29  1  0
 29 30  1  0
 29 31  2  0
 31 32  1  0
 32 33  1  0
 31 34  1  0
 19 10  1  0
 34 25  2  0
 24  2  1  0
 23  6  1  0
  1 35  1  0
  3 36  1  0
  5 37  1  0
  7 38  1  0
 10 39  1  1
 12 40  1  1
 13 41  1  0
 13 42  1  0
 14 43  1  0
 15 44  1  6
 16 45  1  0
 17 46  1  1
 18 47  1  0
 19 48  1  6
 20 49  1  0
 24 50  1  0
 26 51  1  0
 28 52  1  0
 30 53  1  0
 33 54  1  0
 33 55  1  0
 33 56  1  0
 34 57  1  0
M  CHG  1  22   1
M  END
>  <clase>  (1) 
Antocianina

>  <carga>  (1) 
1

>  <InChIKey>  (1) 
CCQDWIRWKWIUKK-QKYBYQKWSA-O

>  <fuente>  (1) 
Ruiz 2024

$$$$
