Isorhamnetín-3-galactosido
     RDKit          3D

 56 59  0  0  0  0  0  0  0  0999 V2000
   -3.2829   -0.7577    0.3139 O   0  0  0  0  0  0  0  0  0  0  0  0
   -2.4684    0.0999    0.6538 C   0  0  0  0  0  0  0  0  0  0  0  0
   -1.0943    0.1769    0.0741 C   0  0  0  0  0  0  0  0  0  0  0  0
   -0.6961   -0.7045   -0.9190 O   0  0  0  0  0  0  0  0  0  0  0  0
   -0.9328   -2.0878   -0.6253 C   0  0  2  0  0  0  0  0  0  0  0  0
    0.3148   -2.7881   -0.7917 O   0  0  0  0  0  0  0  0  0  0  0  0
    0.1302   -4.2121   -0.6959 C   0  0  2  0  0  0  0  0  0  0  0  0
    1.5016   -4.8694   -0.5065 C   0  0  0  0  0  0  0  0  0  0  0  0
    1.4127   -6.2884   -0.5167 O   0  0  0  0  0  0  0  0  0  0  0  0
   -0.6449   -4.7302   -1.9298 C   0  0  2  0  0  0  0  0  0  0  0  0
    0.2295   -5.3548   -2.8881 O   0  0  0  0  0  0  0  0  0  0  0  0
   -1.4072   -3.5871   -2.6225 C   0  0  2  0  0  0  0  0  0  0  0  0
   -0.5008   -2.9041   -3.5136 O   0  0  0  0  0  0  0  0  0  0  0  0
   -2.0153   -2.6180   -1.6051 C   0  0  1  0  0  0  0  0  0  0  0  0
   -3.0470   -3.2935   -0.8710 O   0  0  0  0  0  0  0  0  0  0  0  0
   -0.2846    1.1604    0.5133 C   0  0  0  0  0  0  0  0  0  0  0  0
    1.0896    1.3449    0.0049 C   0  0  0  0  0  0  0  0  0  0  0  0
    1.3537    1.4945   -1.3605 C   0  0  0  0  0  0  0  0  0  0  0  0
    2.6621    1.6823   -1.8122 C   0  0  0  0  0  0  0  0  0  0  0  0
    3.7234    1.7303   -0.9023 C   0  0  0  0  0  0  0  0  0  0  0  0
    4.9849    1.9220   -1.3925 O   0  0  0  0  0  0  0  0  0  0  0  0
    3.4835    1.5918    0.4685 C   0  0  0  0  0  0  0  0  0  0  0  0
    4.3828    1.6166    1.5000 O   0  0  0  0  0  0  0  0  0  0  0  0
    5.7634    1.7235    1.1863 C   0  0  0  0  0  0  0  0  0  0  0  0
    2.1632    1.4051    0.9054 C   0  0  0  0  0  0  0  0  0  0  0  0
   -0.6150    2.0762    1.4984 O   0  0  0  0  0  0  0  0  0  0  0  0
   -1.8706    2.0371    2.0434 C   0  0  0  0  0  0  0  0  0  0  0  0
   -2.1630    3.0000    3.0121 C   0  0  0  0  0  0  0  0  0  0  0  0
   -3.4243    3.0120    3.5998 C   0  0  0  0  0  0  0  0  0  0  0  0
   -3.7561    3.9320    4.5490 O   0  0  0  0  0  0  0  0  0  0  0  0
   -4.3915    2.0811    3.2345 C   0  0  0  0  0  0  0  0  0  0  0  0
   -4.0928    1.1235    2.2686 C   0  0  0  0  0  0  0  0  0  0  0  0
   -5.0885    0.2394    1.9537 O   0  0  0  0  0  0  0  0  0  0  0  0
   -2.8278    1.0980    1.6707 C   0  0  0  0  0  0  0  0  0  0  0  0
   -1.2300   -2.2295    0.4222 H   0  0  0  0  0  0  0  0  0  0  0  0
   -0.4706   -4.4216    0.1999 H   0  0  0  0  0  0  0  0  0  0  0  0
    2.2090   -4.5485   -1.2799 H   0  0  0  0  0  0  0  0  0  0  0  0
    1.9323   -4.5577    0.4513 H   0  0  0  0  0  0  0  0  0  0  0  0
    1.1607   -6.5248   -1.4344 H   0  0  0  0  0  0  0  0  0  0  0  0
   -1.3421   -5.5069   -1.5952 H   0  0  0  0  0  0  0  0  0  0  0  0
    0.2801   -4.7371   -3.6488 H   0  0  0  0  0  0  0  0  0  0  0  0
   -2.1896   -4.0213   -3.2551 H   0  0  0  0  0  0  0  0  0  0  0  0
    0.1910   -2.4898   -2.9570 H   0  0  0  0  0  0  0  0  0  0  0  0
   -2.4894   -1.7850   -2.1380 H   0  0  0  0  0  0  0  0  0  0  0  0
   -3.5026   -2.5907   -0.3577 H   0  0  0  0  0  0  0  0  0  0  0  0
    0.5441    1.4680   -2.0869 H   0  0  0  0  0  0  0  0  0  0  0  0
    2.8326    1.7925   -2.8794 H   0  0  0  0  0  0  0  0  0  0  0  0
    4.9477    1.9799   -2.3611 H   0  0  0  0  0  0  0  0  0  0  0  0
    6.1004    0.8824    0.5722 H   0  0  0  0  0  0  0  0  0  0  0  0
    5.9912    2.6893    0.7249 H   0  0  0  0  0  0  0  0  0  0  0  0
    6.3190    1.6777    2.1285 H   0  0  0  0  0  0  0  0  0  0  0  0
    1.9821    1.2986    1.9738 H   0  0  0  0  0  0  0  0  0  0  0  0
   -1.4050    3.7252    3.2924 H   0  0  0  0  0  0  0  0  0  0  0  0
   -2.9965    4.5154    4.7136 H   0  0  0  0  0  0  0  0  0  0  0  0
   -5.3734    2.1014    3.6999 H   0  0  0  0  0  0  0  0  0  0  0  0
   -4.7584   -0.3681    1.2582 H   0  0  0  0  0  0  0  0  0  0  0  0
  1  2  2  0
  2  3  1  0
  3  4  1  0
  4  5  1  0
  5  6  1  0
  6  7  1  0
  7  8  1  0
  8  9  1  0
  7 10  1  0
 10 11  1  0
 10 12  1  0
 12 13  1  0
 12 14  1  0
 14 15  1  0
  3 16  2  0
 16 17  1  0
 17 18  1  0
 18 19  2  0
 19 20  1  0
 20 21  1  0
 20 22  2  0
 22 23  1  0
 23 24  1  0
 22 25  1  0
 16 26  1  0
 26 27  1  0
 27 28  2  0
 28 29  1  0
 29 30  1  0
 29 31  2  0
 31 32  1  0
 32 33  1  0
 32 34  2  0
 14  5  1  0
 25 17  2  0
 34  2  1  0
 34 27  1  0
  5 35  1  1
  7 36  1  1
  8 37  1  0
  8 38  1  0
  9 39  1  0
 10 40  1  1
 11 41  1  0
 12 42  1  6
 13 43  1  0
 14 44  1  6
 15 45  1  0
 18 46  1  0
 19 47  1  0
 21 48  1  0
 24 49  1  0
 24 50  1  0
 24 51  1  0
 25 52  1  0
 28 53  1  0
 30 54  1  0
 31 55  1  0
 33 56  1  0
M  END
>  <clase>  (1) 
Flavonol

>  <carga>  (1) 
0

>  <InChIKey>  (1) 
CQLRUIIRRZYHHS-UVHBULKNSA-N

>  <fuente>  (1) 
Ruiz 2024

$$$$
