Ácido Clorogénico (5-cafeoilquínico)
     RDKit          3D

 43 44  0  0  0  0  0  0  0  0999 V2000
    1.5699    3.0407    3.0838 O   0  0  0  0  0  0  0  0  0  0  0  0
    1.7221    1.6224    2.9335 C   0  0  2  0  0  0  0  0  0  0  0  0
    3.1954    1.3143    2.6540 C   0  0  0  0  0  0  0  0  0  0  0  0
    3.4126   -0.1615    2.3116 C   0  0  2  0  0  0  0  0  0  0  0  0
    3.1046   -0.9199    3.4904 O   0  0  0  0  0  0  0  0  0  0  0  0
    4.8731   -0.3939    1.8953 C   0  0  0  0  0  0  0  0  0  0  0  0
    5.5871    0.3360    1.2307 O   0  0  0  0  0  0  0  0  0  0  0  0
    5.3349   -1.5885    2.3397 O   0  0  0  0  0  0  0  0  0  0  0  0
    2.4949   -0.6353    1.1823 C   0  0  0  0  0  0  0  0  0  0  0  0
    1.0229   -0.3295    1.4822 C   0  0  2  0  0  0  0  0  0  0  0  0
    0.2604   -0.7439    0.3287 O   0  0  0  0  0  0  0  0  0  0  0  0
   -1.0720   -0.8822    0.5290 C   0  0  0  0  0  0  0  0  0  0  0  0
   -1.6663   -0.7482    1.5856 O   0  0  0  0  0  0  0  0  0  0  0  0
   -1.6923   -1.2340   -0.7635 C   0  0  0  0  0  0  0  0  0  0  0  0
   -3.0152   -1.4447   -0.8353 C   0  0  0  0  0  0  0  0  0  0  0  0
   -3.7193   -1.8077   -2.0723 C   0  0  0  0  0  0  0  0  0  0  0  0
   -3.3849   -1.2465   -3.3137 C   0  0  0  0  0  0  0  0  0  0  0  0
   -4.0931   -1.5943   -4.4686 C   0  0  0  0  0  0  0  0  0  0  0  0
   -5.1473   -2.4993   -4.3837 C   0  0  0  0  0  0  0  0  0  0  0  0
   -5.8494   -2.8502   -5.5020 O   0  0  0  0  0  0  0  0  0  0  0  0
   -5.4986   -3.0511   -3.1527 C   0  0  0  0  0  0  0  0  0  0  0  0
   -6.5411   -3.9334   -3.0876 O   0  0  0  0  0  0  0  0  0  0  0  0
   -4.7945   -2.7048   -1.9986 C   0  0  0  0  0  0  0  0  0  0  0  0
    0.8225    1.1678    1.7739 C   0  0  2  0  0  0  0  0  0  0  0  0
    1.1566    1.9459    0.6101 O   0  0  0  0  0  0  0  0  0  0  0  0
    2.0714    3.3001    3.8777 H   0  0  0  0  0  0  0  0  0  0  0  0
    1.3953    1.1462    3.8651 H   0  0  0  0  0  0  0  0  0  0  0  0
    3.5619    1.9616    1.8462 H   0  0  0  0  0  0  0  0  0  0  0  0
    3.7845    1.5910    3.5387 H   0  0  0  0  0  0  0  0  0  0  0  0
    3.6333   -1.7427    3.4238 H   0  0  0  0  0  0  0  0  0  0  0  0
    6.2593   -1.6175    2.0085 H   0  0  0  0  0  0  0  0  0  0  0  0
    2.6005   -1.7186    1.0340 H   0  0  0  0  0  0  0  0  0  0  0  0
    2.7872   -0.1804    0.2263 H   0  0  0  0  0  0  0  0  0  0  0  0
    0.7109   -0.9264    2.3497 H   0  0  0  0  0  0  0  0  0  0  0  0
   -1.0330   -1.3167   -1.6184 H   0  0  0  0  0  0  0  0  0  0  0  0
   -3.6307   -1.3706    0.0602 H   0  0  0  0  0  0  0  0  0  0  0  0
   -2.5780   -0.5218   -3.3962 H   0  0  0  0  0  0  0  0  0  0  0  0
   -3.8123   -1.1463   -5.4166 H   0  0  0  0  0  0  0  0  0  0  0  0
   -5.4896   -2.3736   -6.2653 H   0  0  0  0  0  0  0  0  0  0  0  0
   -6.6624   -4.2162   -2.1686 H   0  0  0  0  0  0  0  0  0  0  0  0
   -5.0719   -3.1358   -1.0408 H   0  0  0  0  0  0  0  0  0  0  0  0
   -0.2252    1.3962    1.9946 H   0  0  0  0  0  0  0  0  0  0  0  0
    1.1724    2.8709    0.9318 H   0  0  0  0  0  0  0  0  0  0  0  0
  1  2  1  0
  2  3  1  0
  3  4  1  0
  4  5  1  1
  4  6  1  0
  6  7  2  0
  6  8  1  0
  4  9  1  0
  9 10  1  0
 10 11  1  0
 11 12  1  0
 12 13  2  0
 12 14  1  0
 14 15  2  0
 15 16  1  0
 16 17  1  0
 17 18  2  0
 18 19  1  0
 19 20  1  0
 19 21  2  0
 21 22  1  0
 21 23  1  0
 10 24  1  0
 24 25  1  0
 24  2  1  0
 23 16  2  0
  1 26  1  0
  2 27  1  1
  3 28  1  0
  3 29  1  0
  5 30  1  0
  8 31  1  0
  9 32  1  0
  9 33  1  0
 10 34  1  1
 14 35  1  0
 15 36  1  0
 17 37  1  0
 18 38  1  0
 20 39  1  0
 22 40  1  0
 23 41  1  0
 24 42  1  1
 25 43  1  0
M  END
>  <clase>  (1) 
Ác. Hidroxicinámico

>  <carga>  (1) 
0

>  <InChIKey>  (1) 
CWVRJTMFETXNAD-QEPAVKMUSA-N

>  <parte_planta>  (1) 
fruto|hojas|tallo

$$$$
