Ácido Clorogénico (5-cafeoilquínico)
     RDKit          3D

 43 44  0  0  0  0  0  0  0  0999 V2000
    0.9316   -4.4073    2.8352 O   0  0  0  0  0  0  0  0  0  0  0  0
    0.0979   -3.2470    2.9230 C   0  0  2  0  0  0  0  0  0  0  0  0
   -1.3577   -3.6940    2.7686 C   0  0  0  0  0  0  0  0  0  0  0  0
   -2.3149   -2.5030    2.6962 C   0  0  2  0  0  0  0  0  0  0  0  0
   -2.2825   -1.8184    3.9552 O   0  0  0  0  0  0  0  0  0  0  0  0
   -3.7304   -3.0230    2.4039 C   0  0  0  0  0  0  0  0  0  0  0  0
   -4.2199   -3.2801    1.3179 O   0  0  0  0  0  0  0  0  0  0  0  0
   -4.4383   -3.2183    3.5427 O   0  0  0  0  0  0  0  0  0  0  0  0
   -1.8976   -1.4974    1.6196 C   0  0  0  0  0  0  0  0  0  0  0  0
   -0.4455   -1.0415    1.8018 C   0  0  2  0  0  0  0  0  0  0  0  0
   -0.1248   -0.1890    0.6780 O   0  0  0  0  0  0  0  0  0  0  0  0
    0.9157    0.6588    0.8613 C   0  0  0  0  0  0  0  0  0  0  0  0
    1.6160    0.7287    1.8590 O   0  0  0  0  0  0  0  0  0  0  0  0
    1.1454    1.5146   -0.3200 C   0  0  0  0  0  0  0  0  0  0  0  0
    0.3726    1.5154   -1.4175 C   0  0  0  0  0  0  0  0  0  0  0  0
    0.6220    2.3702   -2.5873 C   0  0  0  0  0  0  0  0  0  0  0  0
    0.3784    1.8444   -3.8675 C   0  0  0  0  0  0  0  0  0  0  0  0
    0.5756    2.6245   -5.0099 C   0  0  0  0  0  0  0  0  0  0  0  0
    1.0046    3.9340   -4.8678 C   0  0  0  0  0  0  0  0  0  0  0  0
    1.1961    4.6973   -5.9829 O   0  0  0  0  0  0  0  0  0  0  0  0
    1.2340    4.4744   -3.6060 C   0  0  0  0  0  0  0  0  0  0  0  0
    1.6453    5.7777   -3.5405 O   0  0  0  0  0  0  0  0  0  0  0  0
    1.0415    3.7045   -2.4623 C   0  0  0  0  0  0  0  0  0  0  0  0
    0.5085   -2.2465    1.8335 C   0  0  2  0  0  0  0  0  0  0  0  0
    0.4766   -2.9395    0.5683 O   0  0  0  0  0  0  0  0  0  0  0  0
    1.0321   -4.5815    1.8770 H   0  0  0  0  0  0  0  0  0  0  0  0
    0.2510   -2.8044    3.9135 H   0  0  0  0  0  0  0  0  0  0  0  0
   -1.4634   -4.3291    1.8786 H   0  0  0  0  0  0  0  0  0  0  0  0
   -1.6137   -4.3406    3.6187 H   0  0  0  0  0  0  0  0  0  0  0  0
   -2.9023   -2.3032    4.5394 H   0  0  0  0  0  0  0  0  0  0  0  0
   -5.3056   -3.5524    3.2255 H   0  0  0  0  0  0  0  0  0  0  0  0
   -2.0319   -1.9192    0.6146 H   0  0  0  0  0  0  0  0  0  0  0  0
   -2.5471   -0.6122    1.6535 H   0  0  0  0  0  0  0  0  0  0  0  0
   -0.3670   -0.4673    2.7342 H   0  0  0  0  0  0  0  0  0  0  0  0
    2.0162    2.1550   -0.2284 H   0  0  0  0  0  0  0  0  0  0  0  0
   -0.4853    0.8514   -1.5000 H   0  0  0  0  0  0  0  0  0  0  0  0
    0.0397    0.8174   -3.9892 H   0  0  0  0  0  0  0  0  0  0  0  0
    0.3941    2.2141   -5.9986 H   0  0  0  0  0  0  0  0  0  0  0  0
    1.4883    5.5652   -5.6397 H   0  0  0  0  0  0  0  0  0  0  0  0
    1.7554    6.0179   -2.6044 H   0  0  0  0  0  0  0  0  0  0  0  0
    1.2025    4.1378   -1.4804 H   0  0  0  0  0  0  0  0  0  0  0  0
    1.5487   -1.9363    1.9770 H   0  0  0  0  0  0  0  0  0  0  0  0
    0.6372   -2.2637   -0.1170 H   0  0  0  0  0  0  0  0  0  0  0  0
  1  2  1  0
  2  3  1  0
  3  4  1  0
  4  5  1  1
  4  6  1  0
  6  7  2  0
  6  8  1  0
  4  9  1  0
  9 10  1  0
 10 11  1  0
 11 12  1  0
 12 13  2  0
 12 14  1  0
 14 15  2  0
 15 16  1  0
 16 17  1  0
 17 18  2  0
 18 19  1  0
 19 20  1  0
 19 21  2  0
 21 22  1  0
 21 23  1  0
 10 24  1  0
 24 25  1  0
 24  2  1  0
 23 16  2  0
  1 26  1  0
  2 27  1  1
  3 28  1  0
  3 29  1  0
  5 30  1  0
  8 31  1  0
  9 32  1  0
  9 33  1  0
 10 34  1  1
 14 35  1  0
 15 36  1  0
 17 37  1  0
 18 38  1  0
 20 39  1  0
 22 40  1  0
 23 41  1  0
 24 42  1  1
 25 43  1  0
M  END
>  <clase>  (1) 
Ác. Hidroxicinámico

>  <carga>  (1) 
0

>  <InChIKey>  (1) 
CWVRJTMFETXNAD-QEPAVKMUSA-N

$$$$
