Delfinidin-3-glucósido
     RDKit          3D

 54 57  0  0  0  0  0  0  0  0999 V2000
   -2.9206   -3.1579    2.2269 O   0  0  0  0  0  0  0  0  0  0  0  0
   -1.6179   -2.8888    1.8524 C   0  0  0  0  0  0  0  0  0  0  0  0
   -0.6216   -3.7364    2.2221 C   0  0  0  0  0  0  0  0  0  0  0  0
    0.7828   -3.5366    1.8183 C   0  0  0  0  0  0  0  0  0  0  0  0
    1.3405   -4.5955    1.1533 O   0  0  0  0  0  0  0  0  0  0  0  0
    1.3369   -2.2970    1.8189 C   0  0  0  0  0  0  0  0  0  0  0  0
    0.7631   -1.3169    2.7946 C   0  0  0  0  0  0  0  0  0  0  0  0
    0.1576   -0.2854    2.1789 C   0  0  0  0  0  0  0  0  0  0  0  0
   -1.1708   -0.4227    1.7311 O   0  0  0  0  0  0  0  0  0  0  0  0
   -1.3916   -1.6474    0.9791 C   0  0  2  0  0  0  0  0  0  0  0  0
   -2.3752   -1.5062   -0.0367 O   0  0  0  0  0  0  0  0  0  0  0  0
   -1.7271   -1.2908   -1.3378 C   0  0  2  0  0  0  0  0  0  0  0  0
   -2.6962   -0.4699   -2.1955 C   0  0  0  0  0  0  0  0  0  0  0  0
   -2.7086    0.8674   -1.6780 O   0  0  0  0  0  0  0  0  0  0  0  0
   -1.3107   -2.6598   -1.9555 C   0  0  1  0  0  0  0  0  0  0  0  0
   -2.2216   -2.9893   -3.0157 O   0  0  0  0  0  0  0  0  0  0  0  0
    0.1468   -2.7211   -2.5206 C   0  0  2  0  0  0  0  0  0  0  0  0
    0.1374   -3.7642   -3.5317 O   0  0  0  0  0  0  0  0  0  0  0  0
    1.2602   -3.1206   -1.4822 C   0  0  1  0  0  0  0  0  0  0  0  0
    2.3653   -3.6647   -2.2134 O   0  0  0  0  0  0  0  0  0  0  0  0
    1.1776    0.3912    1.2824 C   0  0  0  0  0  0  0  0  0  0  0  0
    2.1315   -0.2654    0.6581 O   0  0  0  0  0  0  0  0  0  0  0  0
    1.9671   -1.6920    0.6071 C   0  0  0  0  0  0  0  0  0  0  0  0
    1.8810   -2.0071   -0.7017 C   0  0  0  0  0  0  0  0  0  0  0  0
    1.0967    1.8784    1.1835 C   0  0  0  0  0  0  0  0  0  0  0  0
    2.1710    2.5129    0.5337 C   0  0  0  0  0  0  0  0  0  0  0  0
    2.1725    3.8974    0.3885 C   0  0  0  0  0  0  0  0  0  0  0  0
    3.2047    4.5330   -0.2357 O   0  0  0  0  0  0  0  0  0  0  0  0
    1.1086    4.6465    0.8809 C   0  0  0  0  0  0  0  0  0  0  0  0
    1.0967    6.0058    0.7429 O   0  0  0  0  0  0  0  0  0  0  0  0
    0.0410    4.0172    1.5195 C   0  0  0  0  0  0  0  0  0  0  0  0
   -0.9751    4.8115    1.9735 O   0  0  0  0  0  0  0  0  0  0  0  0
    0.0220    2.6347    1.6802 C   0  0  0  0  0  0  0  0  0  0  0  0
   -3.5145   -2.5747    1.7081 H   0  0  0  0  0  0  0  0  0  0  0  0
   -0.8596   -4.6145    2.8200 H   0  0  0  0  0  0  0  0  0  0  0  0
    0.8672   -5.4195    1.3900 H   0  0  0  0  0  0  0  0  0  0  0  0
    0.2244   -1.7989    3.6162 H   0  0  0  0  0  0  0  0  0  0  0  0
   -0.4952   -1.8491    0.4163 H   0  0  0  0  0  0  0  0  0  0  0  0
   -0.8402   -0.6629   -1.1737 H   0  0  0  0  0  0  0  0  0  0  0  0
   -2.3650   -0.4132   -3.2364 H   0  0  0  0  0  0  0  0  0  0  0  0
   -3.7158   -0.8640   -2.1396 H   0  0  0  0  0  0  0  0  0  0  0  0
   -3.4205    1.3365   -2.1526 H   0  0  0  0  0  0  0  0  0  0  0  0
   -1.4292   -3.4621   -1.2187 H   0  0  0  0  0  0  0  0  0  0  0  0
   -1.7740   -3.6824   -3.5486 H   0  0  0  0  0  0  0  0  0  0  0  0
    0.3947   -1.7891   -3.0422 H   0  0  0  0  0  0  0  0  0  0  0  0
    0.8404   -3.5386   -4.1743 H   0  0  0  0  0  0  0  0  0  0  0  0
    0.8658   -3.9295   -0.8782 H   0  0  0  0  0  0  0  0  0  0  0  0
    2.0389   -4.4840   -2.6374 H   0  0  0  0  0  0  0  0  0  0  0  0
    2.3181   -1.2528   -1.3597 H   0  0  0  0  0  0  0  0  0  0  0  0
    3.0009    1.9258    0.1463 H   0  0  0  0  0  0  0  0  0  0  0  0
    3.9097    3.9121   -0.4735 H   0  0  0  0  0  0  0  0  0  0  0  0
    0.2673    6.3108    1.1586 H   0  0  0  0  0  0  0  0  0  0  0  0
   -1.6916    4.2689    2.3452 H   0  0  0  0  0  0  0  0  0  0  0  0
   -0.8272    2.1736    2.1745 H   0  0  0  0  0  0  0  0  0  0  0  0
  1  2  1  0
  2  3  2  3
  3  4  1  0
  4  5  1  0
  4  6  2  3
  6  7  1  0
  7  8  2  0
  8  9  1  0
  9 10  1  0
 10 11  1  0
 11 12  1  0
 12 13  1  0
 13 14  1  0
 12 15  1  0
 15 16  1  0
 15 17  1  0
 17 18  1  0
 17 19  1  0
 19 20  1  0
  8 21  1  0
 21 22  2  0
 22 23  1  0
 23 24  2  3
 21 25  1  0
 25 26  1  0
 26 27  2  0
 27 28  1  0
 27 29  1  0
 29 30  1  0
 29 31  2  0
 31 32  1  0
 31 33  1  0
 10  2  1  0
 24 19  1  0
 33 25  2  0
 23  6  1  0
  1 34  1  0
  3 35  1  0
  5 36  1  0
  7 37  1  0
 10 38  1  6
 12 39  1  1
 13 40  1  0
 13 41  1  0
 14 42  1  0
 15 43  1  1
 16 44  1  0
 17 45  1  6
 18 46  1  0
 19 47  1  1
 20 48  1  0
 24 49  1  0
 26 50  1  0
 28 51  1  0
 30 52  1  0
 32 53  1  0
 33 54  1  0
M  CHG  1  22   1
M  END
>  <clase>  (1) 
Antocianina

>  <carga>  (1) 
1

>  <InChIKey>  (1) 
DYWHGZQWWAWWLU-JIJMNNCASA-O

$$$$
