Kaempferol-3-glucósido
     RDKit          3D

 52 55  0  0  0  0  0  0  0  0999 V2000
    0.6611   -2.1943    3.1339 O   0  0  0  0  0  0  0  0  0  0  0  0
    1.1676   -1.2739    2.5280 C   0  0  0  0  0  0  0  0  0  0  0  0
    0.7275   -0.3481    1.4796 C   0  0  0  0  0  0  0  0  0  0  0  0
    1.7479    0.4230    1.6577 O   0  0  0  0  0  0  0  0  0  0  0  0
    2.5335   -0.6335    2.2867 C   0  0  2  0  0  0  0  0  0  0  0  0
    3.4735   -1.2900    1.3848 O   0  0  0  0  0  0  0  0  0  0  0  0
    3.0160   -2.3986    0.5643 C   0  0  2  0  0  0  0  0  0  0  0  0
    4.2233   -3.3225    0.3056 C   0  0  0  0  0  0  0  0  0  0  0  0
    5.2796   -2.6789   -0.4027 O   0  0  0  0  0  0  0  0  0  0  0  0
    2.3307   -1.8755   -0.7324 C   0  0  1  0  0  0  0  0  0  0  0  0
    3.2702   -1.8539   -1.8390 O   0  0  0  0  0  0  0  0  0  0  0  0
    1.0814   -2.6641   -1.2178 C   0  0  2  0  0  0  0  0  0  0  0  0
    0.6461   -2.0262   -2.4396 O   0  0  0  0  0  0  0  0  0  0  0  0
   -0.1308   -2.8901   -0.2480 C   0  0  1  0  0  0  0  0  0  0  0  0
    0.2704   -3.8124    0.7719 O   0  0  0  0  0  0  0  0  0  0  0  0
   -0.2404   -0.4512    0.5529 C   0  0  0  0  0  0  0  0  0  0  0  0
   -0.9159   -1.7308    0.3788 C   0  0  0  0  0  0  0  0  0  0  0  0
   -2.1644   -1.9542    0.8470 C   0  0  0  0  0  0  0  0  0  0  0  0
   -3.0111   -0.9970    1.5266 C   0  0  0  0  0  0  0  0  0  0  0  0
   -3.7228   -0.0308    0.9329 C   0  0  0  0  0  0  0  0  0  0  0  0
   -4.4613    0.8543    1.6878 O   0  0  0  0  0  0  0  0  0  0  0  0
   -3.7743    0.1914   -0.4911 C   0  0  0  0  0  0  0  0  0  0  0  0
   -3.0702    1.1180   -1.1547 C   0  0  0  0  0  0  0  0  0  0  0  0
   -0.3713    0.4165   -0.5313 O   0  0  0  0  0  0  0  0  0  0  0  0
   -0.8032    1.6978   -0.2548 C   0  0  0  0  0  0  0  0  0  0  0  0
    0.1103    2.6566    0.1946 C   0  0  0  0  0  0  0  0  0  0  0  0
   -0.3292    3.9481    0.4659 C   0  0  0  0  0  0  0  0  0  0  0  0
    0.5263    4.9058    0.9263 O   0  0  0  0  0  0  0  0  0  0  0  0
   -1.6570    4.3095    0.2740 C   0  0  0  0  0  0  0  0  0  0  0  0
   -2.5513    3.3673   -0.2310 C   0  0  0  0  0  0  0  0  0  0  0  0
   -3.8616    3.7171   -0.4366 O   0  0  0  0  0  0  0  0  0  0  0  0
   -2.1329    2.0605   -0.5298 C   0  0  0  0  0  0  0  0  0  0  0  0
    3.0330   -0.2724    3.1905 H   0  0  0  0  0  0  0  0  0  0  0  0
    2.3319   -2.9805    1.1756 H   0  0  0  0  0  0  0  0  0  0  0  0
    4.6442   -3.6576    1.2592 H   0  0  0  0  0  0  0  0  0  0  0  0
    3.9168   -4.2062   -0.2635 H   0  0  0  0  0  0  0  0  0  0  0  0
    4.8449   -2.2115   -1.1495 H   0  0  0  0  0  0  0  0  0  0  0  0
    2.0802   -0.8199   -0.6320 H   0  0  0  0  0  0  0  0  0  0  0  0
    2.7224   -1.6029   -2.6141 H   0  0  0  0  0  0  0  0  0  0  0  0
    1.4427   -3.6558   -1.5229 H   0  0  0  0  0  0  0  0  0  0  0  0
   -0.1002   -2.5415   -2.7953 H   0  0  0  0  0  0  0  0  0  0  0  0
   -0.8663   -3.4408   -0.8524 H   0  0  0  0  0  0  0  0  0  0  0  0
   -0.1101   -3.5370    1.6309 H   0  0  0  0  0  0  0  0  0  0  0  0
   -2.5974   -2.9515    0.7751 H   0  0  0  0  0  0  0  0  0  0  0  0
   -3.0759   -1.1041    2.6073 H   0  0  0  0  0  0  0  0  0  0  0  0
   -4.6770    1.6103    1.1086 H   0  0  0  0  0  0  0  0  0  0  0  0
   -4.4585   -0.4508   -1.0402 H   0  0  0  0  0  0  0  0  0  0  0  0
   -3.1877    1.2279   -2.2290 H   0  0  0  0  0  0  0  0  0  0  0  0
    1.1542    2.3924    0.3163 H   0  0  0  0  0  0  0  0  0  0  0  0
    1.4128    4.5163    1.0167 H   0  0  0  0  0  0  0  0  0  0  0  0
   -1.9684    5.3224    0.5073 H   0  0  0  0  0  0  0  0  0  0  0  0
   -3.9572    4.6692   -0.2639 H   0  0  0  0  0  0  0  0  0  0  0  0
  1  2  2  0
  2  3  1  0
  3  4  1  0
  4  5  1  0
  5  6  1  0
  6  7  1  0
  7  8  1  0
  8  9  1  0
  7 10  1  0
 10 11  1  0
 10 12  1  0
 12 13  1  0
 12 14  1  0
 14 15  1  0
  3 16  2  3
 16 17  1  0
 17 18  2  3
 18 19  1  0
 19 20  2  3
 20 21  1  0
 20 22  1  0
 22 23  2  3
 16 24  1  0
 24 25  1  0
 25 26  2  0
 26 27  1  0
 27 28  1  0
 27 29  2  0
 29 30  1  0
 30 31  1  0
 30 32  2  0
  5  2  1  0
 17 14  1  0
 32 23  1  0
 32 25  1  0
  5 33  1  1
  7 34  1  1
  8 35  1  0
  8 36  1  0
  9 37  1  0
 10 38  1  1
 11 39  1  0
 12 40  1  6
 13 41  1  0
 14 42  1  6
 15 43  1  0
 18 44  1  0
 19 45  1  0
 21 46  1  0
 22 47  1  0
 23 48  1  0
 26 49  1  0
 28 50  1  0
 29 51  1  0
 31 52  1  0
M  END
>  <clase>  (1) 
Flavonol

>  <carga>  (1) 
0

>  <InChIKey>  (1) 
DZFHWXFXTFPAOE-JUEKAOKDSA-N

$$$$
