Cianidín-3-rutinosido
     RDKit          3D

 73 77  0  0  0  0  0  0  0  0999 V2000
   -2.0210   -2.4022    4.5425 O   0  0  0  0  0  0  0  0  0  0  0  0
   -1.1624   -1.4112    4.0923 C   0  0  0  0  0  0  0  0  0  0  0  0
    0.1525   -1.4435    4.3889 C   0  0  0  0  0  0  0  0  0  0  0  0
    1.0849   -0.4605    3.8808 C   0  0  0  0  0  0  0  0  0  0  0  0
    1.7924    0.2308    4.8350 O   0  0  0  0  0  0  0  0  0  0  0  0
    1.1956   -0.1473    2.5767 C   0  0  0  0  0  0  0  0  0  0  0  0
    0.5479   -0.9182    1.5145 C   0  0  0  0  0  0  0  0  0  0  0  0
   -0.7462   -1.0014    1.1648 C   0  0  0  0  0  0  0  0  0  0  0  0
   -1.8759   -0.6342    1.8545 O   0  0  0  0  0  0  0  0  0  0  0  0
   -1.8450   -0.3141    3.2623 C   0  0  2  0  0  0  0  0  0  0  0  0
   -1.3692    0.9998    3.6244 O   0  0  0  0  0  0  0  0  0  0  0  0
   -1.0486    1.8638    2.5334 C   0  0  2  0  0  0  0  0  0  0  0  0
    0.2481    2.6271    2.8439 C   0  0  0  0  0  0  0  0  0  0  0  0
    1.2283    2.2496    1.8621 O   0  0  0  0  0  0  0  0  0  0  0  0
    2.0170    1.0563    2.0718 C   0  0  2  0  0  0  0  0  0  0  0  0
    2.4025    0.7631    0.7207 O   0  0  0  0  0  0  0  0  0  0  0  0
    3.6541    0.1710    0.3935 C   0  0  1  0  0  0  0  0  0  0  0  0
    4.3581   -0.5790    1.5272 C   0  0  0  0  0  0  0  0  0  0  0  0
    3.3529   -0.7878   -0.7929 C   0  0  2  0  0  0  0  0  0  0  0  0
    4.5552   -1.4387   -1.2225 O   0  0  0  0  0  0  0  0  0  0  0  0
    2.6586   -0.1778   -2.0320 C   0  0  2  0  0  0  0  0  0  0  0  0
    3.7341    0.4039   -2.8261 O   0  0  0  0  0  0  0  0  0  0  0  0
    1.5546    0.8981   -1.8974 C   0  0  1  0  0  0  0  0  0  0  0  0
    1.2283    1.2477   -3.2820 O   0  0  0  0  0  0  0  0  0  0  0  0
   -2.2717    2.6571    2.0774 C   0  0  1  0  0  0  0  0  0  0  0  0
   -2.4853    3.8062    2.9022 O   0  0  0  0  0  0  0  0  0  0  0  0
   -2.1794    3.1144    0.6011 C   0  0  2  0  0  0  0  0  0  0  0  0
   -3.4456    3.7212    0.2577 O   0  0  0  0  0  0  0  0  0  0  0  0
   -1.9149    1.9720   -0.4450 C   0  0  1  0  0  0  0  0  0  0  0  0
   -2.4916    2.3682   -1.6936 O   0  0  0  0  0  0  0  0  0  0  0  0
   -0.9092   -1.3034   -0.3118 C   0  0  0  0  0  0  0  0  0  0  0  0
   -0.4341   -0.5880   -1.3134 O   0  0  0  0  0  0  0  0  0  0  0  0
    0.2296    0.6667   -1.1331 C   0  0  0  0  0  0  0  0  0  0  0  0
   -0.4732    1.7635   -0.7839 C   0  0  0  0  0  0  0  0  0  0  0  0
   -1.6994   -2.5400   -0.6249 C   0  0  0  0  0  0  0  0  0  0  0  0
   -2.0561   -2.7376   -1.9702 C   0  0  0  0  0  0  0  0  0  0  0  0
   -2.7762   -3.8725   -2.3520 C   0  0  0  0  0  0  0  0  0  0  0  0
   -3.1296   -4.8088   -1.3914 C   0  0  0  0  0  0  0  0  0  0  0  0
   -3.7862   -5.9343   -1.7869 O   0  0  0  0  0  0  0  0  0  0  0  0
   -2.8023   -4.6045   -0.0557 C   0  0  0  0  0  0  0  0  0  0  0  0
   -3.2069   -5.4801    0.9080 O   0  0  0  0  0  0  0  0  0  0  0  0
   -2.0751   -3.4864    0.3383 C   0  0  0  0  0  0  0  0  0  0  0  0
   -1.5446   -3.0176    5.1293 H   0  0  0  0  0  0  0  0  0  0  0  0
    0.5734   -2.2289    5.0107 H   0  0  0  0  0  0  0  0  0  0  0  0
    1.4682   -0.0158    5.7213 H   0  0  0  0  0  0  0  0  0  0  0  0
    1.2724   -1.3540    0.8407 H   0  0  0  0  0  0  0  0  0  0  0  0
   -2.8987   -0.3008    3.5654 H   0  0  0  0  0  0  0  0  0  0  0  0
   -0.8018    1.2673    1.6790 H   0  0  0  0  0  0  0  0  0  0  0  0
    0.0999    3.7034    2.7166 H   0  0  0  0  0  0  0  0  0  0  0  0
    0.6330    2.4576    3.8536 H   0  0  0  0  0  0  0  0  0  0  0  0
    2.8703    1.3228    2.7002 H   0  0  0  0  0  0  0  0  0  0  0  0
    4.3221    0.9691    0.0495 H   0  0  0  0  0  0  0  0  0  0  0  0
    5.2999   -1.0205    1.1862 H   0  0  0  0  0  0  0  0  0  0  0  0
    3.7313   -1.3820    1.9270 H   0  0  0  0  0  0  0  0  0  0  0  0
    4.6018    0.0910    2.3568 H   0  0  0  0  0  0  0  0  0  0  0  0
    2.7096   -1.5945   -0.4391 H   0  0  0  0  0  0  0  0  0  0  0  0
    4.9182   -0.8753   -1.9415 H   0  0  0  0  0  0  0  0  0  0  0  0
    2.2830   -1.0021   -2.6522 H   0  0  0  0  0  0  0  0  0  0  0  0
    3.3052    0.8651   -3.5788 H   0  0  0  0  0  0  0  0  0  0  0  0
    2.0334    1.8077   -1.5122 H   0  0  0  0  0  0  0  0  0  0  0  0
    0.5497    0.6245   -3.6085 H   0  0  0  0  0  0  0  0  0  0  0  0
   -3.1763    2.0456    2.1863 H   0  0  0  0  0  0  0  0  0  0  0  0
   -2.6354    3.4892    3.8142 H   0  0  0  0  0  0  0  0  0  0  0  0
   -1.4359    3.9138    0.4960 H   0  0  0  0  0  0  0  0  0  0  0  0
   -3.6212    4.3785    0.9650 H   0  0  0  0  0  0  0  0  0  0  0  0
   -2.4270    1.0541   -0.1494 H   0  0  0  0  0  0  0  0  0  0  0  0
   -3.2371    2.9670   -1.4570 H   0  0  0  0  0  0  0  0  0  0  0  0
    0.0591    2.7116   -0.8889 H   0  0  0  0  0  0  0  0  0  0  0  0
   -1.7784   -2.0112   -2.7330 H   0  0  0  0  0  0  0  0  0  0  0  0
   -3.0475   -4.0313   -3.3934 H   0  0  0  0  0  0  0  0  0  0  0  0
   -3.3917   -6.6875   -1.3094 H   0  0  0  0  0  0  0  0  0  0  0  0
   -4.0421   -5.8821    0.5997 H   0  0  0  0  0  0  0  0  0  0  0  0
   -1.8356   -3.3826    1.3929 H   0  0  0  0  0  0  0  0  0  0  0  0
  1  2  1  0
  2  3  2  3
  3  4  1  0
  4  5  1  0
  4  6  2  3
  6  7  1  0
  7  8  2  3
  8  9  1  0
  9 10  1  0
 10 11  1  0
 11 12  1  0
 12 13  1  0
 13 14  1  0
 14 15  1  0
 15 16  1  0
 16 17  1  0
 17 18  1  0
 17 19  1  0
 19 20  1  0
 19 21  1  0
 21 22  1  0
 21 23  1  0
 23 24  1  0
 12 25  1  0
 25 26  1  0
 25 27  1  0
 27 28  1  0
 27 29  1  0
 29 30  1  0
  8 31  1  0
 31 32  2  3
 32 33  1  0
 33 34  2  3
 31 35  1  0
 35 36  1  0
 36 37  2  0
 37 38  1  0
 38 39  1  0
 38 40  2  0
 40 41  1  0
 40 42  1  0
 10  2  1  0
 34 29  1  0
 42 35  2  0
 15  6  1  0
 33 23  1  0
  1 43  1  0
  3 44  1  0
  5 45  1  0
  7 46  1  0
 10 47  1  1
 12 48  1  6
 13 49  1  0
 13 50  1  0
 15 51  1  1
 17 52  1  6
 18 53  1  0
 18 54  1  0
 18 55  1  0
 19 56  1  1
 20 57  1  0
 21 58  1  6
 22 59  1  0
 23 60  1  1
 24 61  1  0
 25 62  1  6
 26 63  1  0
 27 64  1  1
 28 65  1  0
 29 66  1  1
 30 67  1  0
 34 68  1  0
 36 69  1  0
 37 70  1  0
 39 71  1  0
 41 72  1  0
 42 73  1  0
M  CHG  1  32   1
M  END
>  <clase>  (1) 
Antocianina

>  <carga>  (1) 
1

>  <InChIKey>  (1) 
GMKGDVVEVPGBRQ-VEBGNIEMSA-O

$$$$
