4-Cafeoilquínico
     RDKit          3D

 43 44  0  0  0  0  0  0  0  0999 V2000
    0.0083    2.7763   -1.5195 O   0  0  0  0  0  0  0  0  0  0  0  0
    0.3922    2.3202   -0.2188 C   0  0  1  0  0  0  0  0  0  0  0  0
    1.1147    3.4645    0.4852 C   0  0  0  0  0  0  0  0  0  0  0  0
    1.5593    3.0950    1.9093 C   0  0  2  0  0  0  0  0  0  0  0  0
    1.5673    4.3225    2.6588 O   0  0  0  0  0  0  0  0  0  0  0  0
    2.9802    2.5143    1.9134 C   0  0  0  0  0  0  0  0  0  0  0  0
    3.9033    2.9298    2.5990 O   0  0  0  0  0  0  0  0  0  0  0  0
    3.1475    1.4459    1.1136 O   0  0  0  0  0  0  0  0  0  0  0  0
    0.6041    2.1230    2.6179 C   0  0  0  0  0  0  0  0  0  0  0  0
   -0.8066    2.2379    2.0464 C   0  0  2  0  0  0  0  0  0  0  0  0
   -1.6981    1.4284    2.8180 O   0  0  0  0  0  0  0  0  0  0  0  0
   -0.8508    1.8279    0.5605 C   0  0  2  0  0  0  0  0  0  0  0  0
   -0.9115    0.3710    0.5189 O   0  0  0  0  0  0  0  0  0  0  0  0
   -1.2089   -0.1702   -0.6897 C   0  0  0  0  0  0  0  0  0  0  0  0
   -1.3700    0.4449   -1.7305 O   0  0  0  0  0  0  0  0  0  0  0  0
   -1.2858   -1.6345   -0.5330 C   0  0  0  0  0  0  0  0  0  0  0  0
   -1.5250   -2.4081   -1.6023 C   0  0  0  0  0  0  0  0  0  0  0  0
   -1.6012   -3.8733   -1.5436 C   0  0  0  0  0  0  0  0  0  0  0  0
   -2.2616   -4.5462   -0.5005 C   0  0  0  0  0  0  0  0  0  0  0  0
   -2.3424   -5.9439   -0.4848 C   0  0  0  0  0  0  0  0  0  0  0  0
   -1.7677   -6.6663   -1.5216 C   0  0  0  0  0  0  0  0  0  0  0  0
   -1.8128   -8.0317   -1.5654 O   0  0  0  0  0  0  0  0  0  0  0  0
   -1.1249   -6.0057   -2.5643 C   0  0  0  0  0  0  0  0  0  0  0  0
   -0.5667   -6.7232   -3.5838 O   0  0  0  0  0  0  0  0  0  0  0  0
   -1.0422   -4.6195   -2.5886 C   0  0  0  0  0  0  0  0  0  0  0  0
   -0.4955    2.0484   -1.9463 H   0  0  0  0  0  0  0  0  0  0  0  0
    1.0901    1.4919   -0.3820 H   0  0  0  0  0  0  0  0  0  0  0  0
    0.4575    4.3458    0.5034 H   0  0  0  0  0  0  0  0  0  0  0  0
    1.9746    3.7850   -0.1185 H   0  0  0  0  0  0  0  0  0  0  0  0
    2.3077    4.2680    3.2965 H   0  0  0  0  0  0  0  0  0  0  0  0
    4.0946    1.2090    1.2192 H   0  0  0  0  0  0  0  0  0  0  0  0
    0.5766    2.3234    3.6971 H   0  0  0  0  0  0  0  0  0  0  0  0
    0.9404    1.0821    2.5238 H   0  0  0  0  0  0  0  0  0  0  0  0
   -1.1498    3.2741    2.1499 H   0  0  0  0  0  0  0  0  0  0  0  0
   -1.5980    0.5139    2.4960 H   0  0  0  0  0  0  0  0  0  0  0  0
   -1.7861    2.2043    0.1259 H   0  0  0  0  0  0  0  0  0  0  0  0
   -1.1268   -2.0389    0.4586 H   0  0  0  0  0  0  0  0  0  0  0  0
   -1.6486   -1.9658   -2.5903 H   0  0  0  0  0  0  0  0  0  0  0  0
   -2.7342   -3.9883    0.3048 H   0  0  0  0  0  0  0  0  0  0  0  0
   -2.8579   -6.4383    0.3322 H   0  0  0  0  0  0  0  0  0  0  0  0
   -2.3013   -8.3455   -0.7849 H   0  0  0  0  0  0  0  0  0  0  0  0
   -0.7513   -7.6567   -3.3578 H   0  0  0  0  0  0  0  0  0  0  0  0
   -0.5363   -4.1340   -3.4189 H   0  0  0  0  0  0  0  0  0  0  0  0
  1  2  1  0
  2  3  1  0
  3  4  1  0
  4  5  1  1
  4  6  1  0
  6  7  2  0
  6  8  1  0
  4  9  1  0
  9 10  1  0
 10 11  1  0
 10 12  1  0
 12 13  1  0
 13 14  1  0
 14 15  2  0
 14 16  1  0
 16 17  2  0
 17 18  1  0
 18 19  1  0
 19 20  2  0
 20 21  1  0
 21 22  1  0
 21 23  2  0
 23 24  1  0
 23 25  1  0
 12  2  1  0
 25 18  2  0
  1 26  1  0
  2 27  1  6
  3 28  1  0
  3 29  1  0
  5 30  1  0
  8 31  1  0
  9 32  1  0
  9 33  1  0
 10 34  1  6
 11 35  1  0
 12 36  1  6
 16 37  1  0
 17 38  1  0
 19 39  1  0
 20 40  1  0
 22 41  1  0
 24 42  1  0
 25 43  1  0
M  END
>  <clase>  (1) 
Ác. Hidroxicinámico

>  <carga>  (1) 
0

>  <InChIKey>  (1) 
GYFFKZTYYAFCTR-ZZVAFGPTSA-N

>  <fuente>  (1) 
Ruiz 2024

$$$$
