4-Cafeoilquínico
     RDKit          3D

 43 44  0  0  0  0  0  0  0  0999 V2000
   -0.4045    0.7398    3.5045 O   0  0  0  0  0  0  0  0  0  0  0  0
   -1.1320   -0.1427    2.6346 C   0  0  1  0  0  0  0  0  0  0  0  0
   -2.3597   -0.6273    3.4155 C   0  0  0  0  0  0  0  0  0  0  0  0
   -3.6059    0.2262    3.1398 C   0  0  2  0  0  0  0  0  0  0  0  0
   -3.3345    1.5917    3.4851 O   0  0  0  0  0  0  0  0  0  0  0  0
   -4.7541   -0.3104    4.0096 C   0  0  0  0  0  0  0  0  0  0  0  0
   -5.5695   -1.1691    3.7164 O   0  0  0  0  0  0  0  0  0  0  0  0
   -4.7718    0.2539    5.2403 O   0  0  0  0  0  0  0  0  0  0  0  0
   -3.9983    0.2238    1.6503 C   0  0  0  0  0  0  0  0  0  0  0  0
   -2.7996    0.0012    0.7222 C   0  0  2  0  0  0  0  0  0  0  0  0
   -2.6546   -1.4095    0.4960 O   0  0  0  0  0  0  0  0  0  0  0  0
   -1.4933    0.5656    1.3066 C   0  0  2  0  0  0  0  0  0  0  0  0
   -0.4605    0.3591    0.3058 O   0  0  0  0  0  0  0  0  0  0  0  0
    0.7186    0.9881    0.4922 C   0  0  0  0  0  0  0  0  0  0  0  0
    1.0064    1.6974    1.4455 O   0  0  0  0  0  0  0  0  0  0  0  0
    1.6703    0.7242   -0.6053 C   0  0  0  0  0  0  0  0  0  0  0  0
    1.4110   -0.0739   -1.6530 C   0  0  0  0  0  0  0  0  0  0  0  0
    2.3686   -0.3429   -2.7355 C   0  0  0  0  0  0  0  0  0  0  0  0
    3.2358    0.6446   -3.2355 C   0  0  0  0  0  0  0  0  0  0  0  0
    4.1161    0.3640   -4.2876 C   0  0  0  0  0  0  0  0  0  0  0  0
    4.1187   -0.9065   -4.8469 C   0  0  0  0  0  0  0  0  0  0  0  0
    4.9528   -1.2433   -5.8762 O   0  0  0  0  0  0  0  0  0  0  0  0
    3.2521   -1.8844   -4.3685 C   0  0  0  0  0  0  0  0  0  0  0  0
    3.2551   -3.1301   -4.9289 O   0  0  0  0  0  0  0  0  0  0  0  0
    2.3761   -1.6139   -3.3251 C   0  0  0  0  0  0  0  0  0  0  0  0
    0.2713    1.2017    2.9624 H   0  0  0  0  0  0  0  0  0  0  0  0
   -0.4662   -0.9935    2.4486 H   0  0  0  0  0  0  0  0  0  0  0  0
   -2.5752   -1.6694    3.1454 H   0  0  0  0  0  0  0  0  0  0  0  0
   -2.1346   -0.6257    4.4903 H   0  0  0  0  0  0  0  0  0  0  0  0
   -3.1278    1.5957    4.4411 H   0  0  0  0  0  0  0  0  0  0  0  0
   -5.5363   -0.1692    5.6853 H   0  0  0  0  0  0  0  0  0  0  0  0
   -4.7539   -0.5428    1.4419 H   0  0  0  0  0  0  0  0  0  0  0  0
   -4.4528    1.1917    1.4012 H   0  0  0  0  0  0  0  0  0  0  0  0
   -2.9911    0.4489   -0.2601 H   0  0  0  0  0  0  0  0  0  0  0  0
   -3.4086   -1.6988   -0.0486 H   0  0  0  0  0  0  0  0  0  0  0  0
   -1.6023    1.6484    1.4517 H   0  0  0  0  0  0  0  0  0  0  0  0
    2.6243    1.2252   -0.4845 H   0  0  0  0  0  0  0  0  0  0  0  0
    0.4583   -0.5942   -1.7335 H   0  0  0  0  0  0  0  0  0  0  0  0
    3.2281    1.6497   -2.8196 H   0  0  0  0  0  0  0  0  0  0  0  0
    4.7759    1.1448   -4.6517 H   0  0  0  0  0  0  0  0  0  0  0  0
    5.4948   -0.4656   -6.0944 H   0  0  0  0  0  0  0  0  0  0  0  0
    3.9399   -3.0840   -5.6257 H   0  0  0  0  0  0  0  0  0  0  0  0
    1.7123   -2.4001   -2.9753 H   0  0  0  0  0  0  0  0  0  0  0  0
  1  2  1  0
  2  3  1  0
  3  4  1  0
  4  5  1  1
  4  6  1  0
  6  7  2  0
  6  8  1  0
  4  9  1  0
  9 10  1  0
 10 11  1  0
 10 12  1  0
 12 13  1  0
 13 14  1  0
 14 15  2  0
 14 16  1  0
 16 17  2  0
 17 18  1  0
 18 19  1  0
 19 20  2  0
 20 21  1  0
 21 22  1  0
 21 23  2  0
 23 24  1  0
 23 25  1  0
 12  2  1  0
 25 18  2  0
  1 26  1  0
  2 27  1  6
  3 28  1  0
  3 29  1  0
  5 30  1  0
  8 31  1  0
  9 32  1  0
  9 33  1  0
 10 34  1  6
 11 35  1  0
 12 36  1  1
 16 37  1  0
 17 38  1  0
 19 39  1  0
 20 40  1  0
 22 41  1  0
 24 42  1  0
 25 43  1  0
M  END
>  <clase>  (1) 
Ác. Hidroxicinámico

>  <carga>  (1) 
0

>  <InChIKey>  (1) 
GYFFKZTYYAFCTR-ZZVAFGPTSA-N

$$$$
