3-Cafeoilquínico
     RDKit          3D

 43 44  0  0  0  0  0  0  0  0999 V2000
   -3.2132   -0.2248    3.4141 O   0  0  0  0  0  0  0  0  0  0  0  0
   -2.0784    0.2261    2.6755 C   0  0  2  0  0  0  0  0  0  0  0  0
   -1.9592    1.7505    2.7256 C   0  0  0  0  0  0  0  0  0  0  0  0
   -3.1792    2.4573    2.1092 C   0  0  2  0  0  0  0  0  0  0  0  0
   -2.6678    3.6084    1.4115 O   0  0  0  0  0  0  0  0  0  0  0  0
   -4.1634    2.9603    3.1764 C   0  0  0  0  0  0  0  0  0  0  0  0
   -4.7742    4.0185    3.1171 O   0  0  0  0  0  0  0  0  0  0  0  0
   -4.3518    2.1268    4.2184 O   0  0  0  0  0  0  0  0  0  0  0  0
   -3.9372    1.5909    1.0971 C   0  0  0  0  0  0  0  0  0  0  0  0
   -2.9807    0.6967    0.3126 C   0  0  2  0  0  0  0  0  0  0  0  0
   -3.7575   -0.0269   -0.6489 O   0  0  0  0  0  0  0  0  0  0  0  0
   -2.1866   -0.2787    1.2209 C   0  0  1  0  0  0  0  0  0  0  0  0
   -0.8296   -0.4160    0.7193 O   0  0  0  0  0  0  0  0  0  0  0  0
   -0.6870   -1.1120   -0.4345 C   0  0  0  0  0  0  0  0  0  0  0  0
   -1.5896   -1.5796   -1.1087 O   0  0  0  0  0  0  0  0  0  0  0  0
    0.7517   -1.1867   -0.7518 C   0  0  0  0  0  0  0  0  0  0  0  0
    1.1605   -1.8351   -1.8526 C   0  0  0  0  0  0  0  0  0  0  0  0
    2.5699   -1.9731   -2.2423 C   0  0  0  0  0  0  0  0  0  0  0  0
    3.4919   -0.9209   -2.1025 C   0  0  0  0  0  0  0  0  0  0  0  0
    4.8230   -1.0722   -2.5096 C   0  0  0  0  0  0  0  0  0  0  0  0
    5.2269   -2.2779   -3.0666 C   0  0  0  0  0  0  0  0  0  0  0  0
    6.5113   -2.4886   -3.4846 O   0  0  0  0  0  0  0  0  0  0  0  0
    4.3161   -3.3187   -3.2215 C   0  0  0  0  0  0  0  0  0  0  0  0
    4.7198   -4.4998   -3.7761 O   0  0  0  0  0  0  0  0  0  0  0  0
    2.9937   -3.1760   -2.8217 C   0  0  0  0  0  0  0  0  0  0  0  0
   -3.3581    0.3705    4.1750 H   0  0  0  0  0  0  0  0  0  0  0  0
   -1.1948   -0.2114    3.1547 H   0  0  0  0  0  0  0  0  0  0  0  0
   -1.8221    2.0734    3.7654 H   0  0  0  0  0  0  0  0  0  0  0  0
   -1.0419    2.0485    2.2000 H   0  0  0  0  0  0  0  0  0  0  0  0
   -3.4248    4.2133    1.2725 H   0  0  0  0  0  0  0  0  0  0  0  0
   -5.0327    2.5854    4.7591 H   0  0  0  0  0  0  0  0  0  0  0  0
   -4.4967    2.2220    0.3934 H   0  0  0  0  0  0  0  0  0  0  0  0
   -4.6961    0.9675    1.5883 H   0  0  0  0  0  0  0  0  0  0  0  0
   -2.2891    1.3256   -0.2616 H   0  0  0  0  0  0  0  0  0  0  0  0
   -3.1636   -0.6865   -1.0700 H   0  0  0  0  0  0  0  0  0  0  0  0
   -2.6541   -1.2726    1.2222 H   0  0  0  0  0  0  0  0  0  0  0  0
    1.4367   -0.7157   -0.0582 H   0  0  0  0  0  0  0  0  0  0  0  0
    0.4378   -2.3222   -2.5064 H   0  0  0  0  0  0  0  0  0  0  0  0
    3.1803    0.0352   -1.6876 H   0  0  0  0  0  0  0  0  0  0  0  0
    5.5137   -0.2440   -2.3895 H   0  0  0  0  0  0  0  0  0  0  0  0
    7.0209   -1.6763   -3.3215 H   0  0  0  0  0  0  0  0  0  0  0  0
    5.6676   -4.3660   -3.9768 H   0  0  0  0  0  0  0  0  0  0  0  0
    2.3068   -4.0069   -2.9587 H   0  0  0  0  0  0  0  0  0  0  0  0
  1  2  1  0
  2  3  1  0
  3  4  1  0
  4  5  1  6
  4  6  1  0
  6  7  2  0
  6  8  1  0
  4  9  1  0
  9 10  1  0
 10 11  1  0
 10 12  1  0
 12 13  1  0
 13 14  1  0
 14 15  2  0
 14 16  1  0
 16 17  2  0
 17 18  1  0
 18 19  1  0
 19 20  2  0
 20 21  1  0
 21 22  1  0
 21 23  2  0
 23 24  1  0
 23 25  1  0
 12  2  1  0
 25 18  2  0
  1 26  1  0
  2 27  1  1
  3 28  1  0
  3 29  1  0
  5 30  1  0
  8 31  1  0
  9 32  1  0
  9 33  1  0
 10 34  1  6
 11 35  1  0
 12 36  1  1
 16 37  1  0
 17 38  1  0
 19 39  1  0
 20 40  1  0
 22 41  1  0
 24 42  1  0
 25 43  1  0
M  END
>  <clase>  (1) 
Ác. Hidroxicinámico

>  <carga>  (1) 
0

>  <InChIKey>  (1) 
GYFFKZTYYAFCTR-DHLOTTMOSA-N

$$$$
