3-Cafeoilquínico
     RDKit          3D

 43 44  0  0  0  0  0  0  0  0999 V2000
   -2.3289    2.7429    2.5426 O   0  0  0  0  0  0  0  0  0  0  0  0
   -1.9221    1.5517    1.8571 C   0  0  2  0  0  0  0  0  0  0  0  0
   -1.5053    0.4867    2.8813 C   0  0  0  0  0  0  0  0  0  0  0  0
   -0.0297    0.6036    3.3323 C   0  0  2  0  0  0  0  0  0  0  0  0
    0.7326   -0.3666    2.5975 O   0  0  0  0  0  0  0  0  0  0  0  0
    0.0938    0.3026    4.8417 C   0  0  0  0  0  0  0  0  0  0  0  0
   -0.7932    0.3720    5.6791 O   0  0  0  0  0  0  0  0  0  0  0  0
    1.3469   -0.0289    5.2224 O   0  0  0  0  0  0  0  0  0  0  0  0
    0.5534    2.0054    3.1038 C   0  0  0  0  0  0  0  0  0  0  0  0
    0.3854    2.5413    1.6732 C   0  0  2  0  0  0  0  0  0  0  0  0
    0.1952    3.9582    1.7567 O   0  0  0  0  0  0  0  0  0  0  0  0
   -0.7770    1.8948    0.8899 C   0  0  1  0  0  0  0  0  0  0  0  0
   -0.2723    0.7051    0.2416 O   0  0  0  0  0  0  0  0  0  0  0  0
   -1.0386    0.2273   -0.7727 C   0  0  0  0  0  0  0  0  0  0  0  0
   -2.1041    0.6829   -1.1480 O   0  0  0  0  0  0  0  0  0  0  0  0
   -0.3678   -0.9633   -1.3294 C   0  0  0  0  0  0  0  0  0  0  0  0
   -0.9402   -1.6403   -2.3363 C   0  0  0  0  0  0  0  0  0  0  0  0
   -0.3472   -2.8282   -2.9655 C   0  0  0  0  0  0  0  0  0  0  0  0
    0.3468   -3.8016   -2.2259 C   0  0  0  0  0  0  0  0  0  0  0  0
    0.8829   -4.9300   -2.8551 C   0  0  0  0  0  0  0  0  0  0  0  0
    0.7153   -5.0888   -4.2217 C   0  0  0  0  0  0  0  0  0  0  0  0
    1.2955   -6.1580   -4.8389 O   0  0  0  0  0  0  0  0  0  0  0  0
   -0.0129   -4.1580   -4.9543 C   0  0  0  0  0  0  0  0  0  0  0  0
   -0.2539   -4.3585   -6.2830 O   0  0  0  0  0  0  0  0  0  0  0  0
   -0.5347   -3.0254   -4.3409 C   0  0  0  0  0  0  0  0  0  0  0  0
   -3.1637    2.5392    3.0060 H   0  0  0  0  0  0  0  0  0  0  0  0
   -2.7937    1.1850    1.3043 H   0  0  0  0  0  0  0  0  0  0  0  0
   -1.6606   -0.5041    2.4339 H   0  0  0  0  0  0  0  0  0  0  0  0
   -2.1905    0.5529    3.7339 H   0  0  0  0  0  0  0  0  0  0  0  0
    0.8178   -0.0688    1.6754 H   0  0  0  0  0  0  0  0  0  0  0  0
    1.2714   -0.2062    6.1819 H   0  0  0  0  0  0  0  0  0  0  0  0
    1.6277    2.0054    3.3343 H   0  0  0  0  0  0  0  0  0  0  0  0
    0.1088    2.7087    3.8220 H   0  0  0  0  0  0  0  0  0  0  0  0
    1.3210    2.3828    1.1241 H   0  0  0  0  0  0  0  0  0  0  0  0
   -0.7014    4.0976    2.1279 H   0  0  0  0  0  0  0  0  0  0  0  0
   -1.1219    2.6136    0.1344 H   0  0  0  0  0  0  0  0  0  0  0  0
    0.5873   -1.2433   -0.9033 H   0  0  0  0  0  0  0  0  0  0  0  0
   -1.8888   -1.3052   -2.7546 H   0  0  0  0  0  0  0  0  0  0  0  0
    0.4754   -3.6986   -1.1510 H   0  0  0  0  0  0  0  0  0  0  0  0
    1.4344   -5.6690   -2.2814 H   0  0  0  0  0  0  0  0  0  0  0  0
    1.6041   -5.8344   -5.7054 H   0  0  0  0  0  0  0  0  0  0  0  0
   -0.3984   -5.3170   -6.3891 H   0  0  0  0  0  0  0  0  0  0  0  0
   -1.0920   -2.3079   -4.9376 H   0  0  0  0  0  0  0  0  0  0  0  0
  1  2  1  0
  2  3  1  0
  3  4  1  0
  4  5  1  6
  4  6  1  0
  6  7  2  0
  6  8  1  0
  4  9  1  0
  9 10  1  0
 10 11  1  0
 10 12  1  0
 12 13  1  0
 13 14  1  0
 14 15  2  0
 14 16  1  0
 16 17  2  0
 17 18  1  0
 18 19  1  0
 19 20  2  0
 20 21  1  0
 21 22  1  0
 21 23  2  0
 23 24  1  0
 23 25  1  0
 12  2  1  0
 25 18  2  0
  1 26  1  0
  2 27  1  6
  3 28  1  0
  3 29  1  0
  5 30  1  0
  8 31  1  0
  9 32  1  0
  9 33  1  0
 10 34  1  6
 11 35  1  0
 12 36  1  6
 16 37  1  0
 17 38  1  0
 19 39  1  0
 20 40  1  0
 22 41  1  0
 24 42  1  0
 25 43  1  0
M  END
>  <clase>  (1) 
Ác. Hidroxicinámico

>  <carga>  (1) 
0

>  <InChIKey>  (1) 
GYFFKZTYYAFCTR-DHLOTTMOSA-N

>  <fuente>  (1) 
Ruiz 2024

$$$$
