Quercetín-3-rhamnosido
     RDKit          3D

 52 55  0  0  0  0  0  0  0  0999 V2000
   -2.1173   -0.6093   -3.2808 O   0  0  0  0  0  0  0  0  0  0  0  0
   -1.8690    0.3850   -2.6360 C   0  0  0  0  0  0  0  0  0  0  0  0
   -1.6722    0.7244   -1.2262 C   0  0  0  0  0  0  0  0  0  0  0  0
   -1.9966    1.9554   -1.4592 O   0  0  0  0  0  0  0  0  0  0  0  0
   -1.5414    1.8555   -2.8497 C   0  0  1  0  0  0  0  0  0  0  0  0
   -0.1304    2.1851   -3.0269 O   0  0  0  0  0  0  0  0  0  0  0  0
    0.6769    1.2924   -3.8102 C   0  0  1  0  0  0  0  0  0  0  0  0
    1.1387    2.0726   -5.0403 C   0  0  0  0  0  0  0  0  0  0  0  0
    1.8890    0.7707   -2.9859 C   0  0  2  0  0  0  0  0  0  0  0  0
    2.5863   -0.2474   -3.7085 O   0  0  0  0  0  0  0  0  0  0  0  0
    1.5284    0.2381   -1.5710 C   0  0  2  0  0  0  0  0  0  0  0  0
    2.7456   -0.0612   -0.8375 O   0  0  0  0  0  0  0  0  0  0  0  0
    0.6488   -1.0650   -1.5530 C   0  0  1  0  0  0  0  0  0  0  0  0
    1.5112   -2.2158   -1.5853 O   0  0  0  0  0  0  0  0  0  0  0  0
   -1.2122    0.0624   -0.1473 C   0  0  0  0  0  0  0  0  0  0  0  0
   -0.2610   -1.0916   -0.2931 C   0  0  0  0  0  0  0  0  0  0  0  0
   -0.0018   -2.0130    0.6673 C   0  0  0  0  0  0  0  0  0  0  0  0
   -0.3163   -1.7924    2.0574 C   0  0  0  0  0  0  0  0  0  0  0  0
    0.4280   -0.9268    2.7728 C   0  0  0  0  0  0  0  0  0  0  0  0
    1.6988   -0.5125    2.3975 O   0  0  0  0  0  0  0  0  0  0  0  0
   -0.0383   -0.2013    3.9309 C   0  0  0  0  0  0  0  0  0  0  0  0
    0.9525    0.0708    4.8606 O   0  0  0  0  0  0  0  0  0  0  0  0
   -1.2396    0.3732    4.0868 C   0  0  0  0  0  0  0  0  0  0  0  0
   -1.3094    0.6526    1.1252 O   0  0  0  0  0  0  0  0  0  0  0  0
   -2.5028    0.4907    1.8354 C   0  0  0  0  0  0  0  0  0  0  0  0
   -3.7500    0.5196    1.1807 C   0  0  0  0  0  0  0  0  0  0  0  0
   -4.9322    0.3482    1.8951 C   0  0  0  0  0  0  0  0  0  0  0  0
   -6.1480    0.3708    1.2771 O   0  0  0  0  0  0  0  0  0  0  0  0
   -4.9090    0.1441    3.2612 C   0  0  0  0  0  0  0  0  0  0  0  0
   -3.6857    0.1212    3.9234 C   0  0  0  0  0  0  0  0  0  0  0  0
   -3.7637   -0.1247    5.2730 O   0  0  0  0  0  0  0  0  0  0  0  0
   -2.4591    0.3159    3.2447 C   0  0  0  0  0  0  0  0  0  0  0  0
   -2.1950    2.3900   -3.5438 H   0  0  0  0  0  0  0  0  0  0  0  0
    0.0958    0.4430   -4.1820 H   0  0  0  0  0  0  0  0  0  0  0  0
    0.2739    2.4594   -5.5906 H   0  0  0  0  0  0  0  0  0  0  0  0
    1.7269    1.4488   -5.7193 H   0  0  0  0  0  0  0  0  0  0  0  0
    1.7398    2.9413   -4.7500 H   0  0  0  0  0  0  0  0  0  0  0  0
    2.6005    1.5940   -2.8393 H   0  0  0  0  0  0  0  0  0  0  0  0
    3.0825    0.1711   -4.4335 H   0  0  0  0  0  0  0  0  0  0  0  0
    1.0527    1.0573   -1.0241 H   0  0  0  0  0  0  0  0  0  0  0  0
    3.2849    0.7500   -0.8276 H   0  0  0  0  0  0  0  0  0  0  0  0
    0.0448   -1.1544   -2.4511 H   0  0  0  0  0  0  0  0  0  0  0  0
    2.4207   -1.8528   -1.5947 H   0  0  0  0  0  0  0  0  0  0  0  0
    0.6848   -2.8390    0.4893 H   0  0  0  0  0  0  0  0  0  0  0  0
   -1.2901   -2.1353    2.3945 H   0  0  0  0  0  0  0  0  0  0  0  0
    1.9046   -0.9002    1.5261 H   0  0  0  0  0  0  0  0  0  0  0  0
    1.7904   -0.1293    4.3953 H   0  0  0  0  0  0  0  0  0  0  0  0
   -1.3628    0.9885    4.9790 H   0  0  0  0  0  0  0  0  0  0  0  0
   -3.8191    0.6930    0.1159 H   0  0  0  0  0  0  0  0  0  0  0  0
   -6.0199    0.5052    0.3242 H   0  0  0  0  0  0  0  0  0  0  0  0
   -5.8337   -0.0008    3.8116 H   0  0  0  0  0  0  0  0  0  0  0  0
   -2.9001   -0.4440    5.5854 H   0  0  0  0  0  0  0  0  0  0  0  0
  1  2  2  0
  2  3  1  0
  3  4  1  0
  4  5  1  0
  5  6  1  0
  6  7  1  0
  7  8  1  0
  7  9  1  0
  9 10  1  0
  9 11  1  0
 11 12  1  0
 11 13  1  0
 13 14  1  0
  3 15  2  3
 15 16  1  0
 16 17  2  3
 17 18  1  0
 18 19  2  3
 19 20  1  0
 19 21  1  0
 21 22  1  0
 21 23  2  3
 15 24  1  0
 24 25  1  0
 25 26  2  0
 26 27  1  0
 27 28  1  0
 27 29  2  0
 29 30  1  0
 30 31  1  0
 30 32  2  0
  5  2  1  0
 16 13  1  0
 32 23  1  0
 32 25  1  0
  5 33  1  6
  7 34  1  6
  8 35  1  0
  8 36  1  0
  8 37  1  0
  9 38  1  1
 10 39  1  0
 11 40  1  1
 12 41  1  0
 13 42  1  6
 14 43  1  0
 17 44  1  0
 18 45  1  0
 20 46  1  0
 22 47  1  0
 23 48  1  0
 26 49  1  0
 28 50  1  0
 29 51  1  0
 31 52  1  0
M  END
>  <clase>  (1) 
Flavonol

>  <carga>  (1) 
0

>  <InChIKey>  (1) 
IAXDZIGIBHKHRV-DEGXXVNDSA-N

$$$$
