Quercetín-3-rutinosido (Rutina)
     RDKit          3D

 73 77  0  0  0  0  0  0  0  0999 V2000
   -4.3164    1.0412    1.0507 O   0  0  0  0  0  0  0  0  0  0  0  0
   -3.8760   -0.0902    1.2452 C   0  0  0  0  0  0  0  0  0  0  0  0
   -2.4896   -0.5203    0.8641 C   0  0  0  0  0  0  0  0  0  0  0  0
   -1.5781    0.3103    0.2191 O   0  0  0  0  0  0  0  0  0  0  0  0
   -2.0093    1.5504   -0.3483 C   0  0  2  0  0  0  0  0  0  0  0  0
   -1.1885    1.8669   -1.4865 O   0  0  0  0  0  0  0  0  0  0  0  0
    0.1810    2.1723   -1.2116 C   0  0  2  0  0  0  0  0  0  0  0  0
    1.0847    1.0310   -1.7020 C   0  0  0  0  0  0  0  0  0  0  0  0
    2.4606    1.3796   -1.5054 O   0  0  0  0  0  0  0  0  0  0  0  0
    3.3448    0.4733   -2.1792 C   0  0  2  0  0  0  0  0  0  0  0  0
    3.2906   -0.8194   -1.5854 O   0  0  0  0  0  0  0  0  0  0  0  0
    4.0331   -1.7971   -2.3386 C   0  0  1  0  0  0  0  0  0  0  0  0
    3.0696   -2.5462   -3.2568 C   0  0  0  0  0  0  0  0  0  0  0  0
    5.2264   -1.2125   -3.1327 C   0  0  2  0  0  0  0  0  0  0  0  0
    6.2422   -2.2067   -3.3174 O   0  0  0  0  0  0  0  0  0  0  0  0
    5.8364   -0.0209   -2.3847 C   0  0  2  0  0  0  0  0  0  0  0  0
    6.4182   -0.5019   -1.1606 O   0  0  0  0  0  0  0  0  0  0  0  0
    4.7768    1.0479   -2.0780 C   0  0  1  0  0  0  0  0  0  0  0  0
    4.9038    2.1377   -3.0074 O   0  0  0  0  0  0  0  0  0  0  0  0
    0.4768    2.5609    0.2438 C   0  0  1  0  0  0  0  0  0  0  0  0
    1.7093    3.2875    0.3566 O   0  0  0  0  0  0  0  0  0  0  0  0
   -0.6612    3.4381    0.7528 C   0  0  2  0  0  0  0  0  0  0  0  0
   -0.3636    3.8361    2.1036 O   0  0  0  0  0  0  0  0  0  0  0  0
   -1.9953    2.6849    0.7123 C   0  0  1  0  0  0  0  0  0  0  0  0
   -3.0496    3.6282    0.4419 O   0  0  0  0  0  0  0  0  0  0  0  0
   -2.1362   -1.7835    1.1903 C   0  0  0  0  0  0  0  0  0  0  0  0
   -0.8040   -2.3537    0.8816 C   0  0  0  0  0  0  0  0  0  0  0  0
   -0.7152   -3.6258    0.2819 C   0  0  0  0  0  0  0  0  0  0  0  0
    0.5259   -4.2048   -0.0011 C   0  0  0  0  0  0  0  0  0  0  0  0
    1.6813   -3.5064    0.3057 C   0  0  0  0  0  0  0  0  0  0  0  0
    2.8944   -4.0766    0.0528 O   0  0  0  0  0  0  0  0  0  0  0  0
    1.6060   -2.2413    0.8753 C   0  0  0  0  0  0  0  0  0  0  0  0
    2.7516   -1.5273    1.0778 O   0  0  0  0  0  0  0  0  0  0  0  0
    0.3811   -1.6739    1.1980 C   0  0  0  0  0  0  0  0  0  0  0  0
   -2.9567   -2.7060    1.8175 O   0  0  0  0  0  0  0  0  0  0  0  0
   -4.2320   -2.3461    2.1503 C   0  0  0  0  0  0  0  0  0  0  0  0
   -5.0175   -3.3208    2.7712 C   0  0  0  0  0  0  0  0  0  0  0  0
   -6.3257   -3.0130    3.1311 C   0  0  0  0  0  0  0  0  0  0  0  0
   -7.1300   -3.9306    3.7379 O   0  0  0  0  0  0  0  0  0  0  0  0
   -6.8557   -1.7522    2.8801 C   0  0  0  0  0  0  0  0  0  0  0  0
   -6.0644   -0.7858    2.2639 C   0  0  0  0  0  0  0  0  0  0  0  0
   -6.6477    0.4335    2.0492 O   0  0  0  0  0  0  0  0  0  0  0  0
   -4.7458   -1.0813    1.8956 C   0  0  0  0  0  0  0  0  0  0  0  0
   -3.0030    1.4297   -0.7902 H   0  0  0  0  0  0  0  0  0  0  0  0
    0.4262    3.0416   -1.8369 H   0  0  0  0  0  0  0  0  0  0  0  0
    0.8583    0.1050   -1.1647 H   0  0  0  0  0  0  0  0  0  0  0  0
    0.8844    0.8502   -2.7651 H   0  0  0  0  0  0  0  0  0  0  0  0
    3.0340    0.4286   -3.2318 H   0  0  0  0  0  0  0  0  0  0  0  0
    4.4134   -2.5202   -1.6080 H   0  0  0  0  0  0  0  0  0  0  0  0
    2.6341   -1.8746   -4.0045 H   0  0  0  0  0  0  0  0  0  0  0  0
    3.5701   -3.3679   -3.7769 H   0  0  0  0  0  0  0  0  0  0  0  0
    2.2321   -2.9559   -2.6834 H   0  0  0  0  0  0  0  0  0  0  0  0
    4.9061   -0.8765   -4.1267 H   0  0  0  0  0  0  0  0  0  0  0  0
    5.8773   -2.9066   -3.8880 H   0  0  0  0  0  0  0  0  0  0  0  0
    6.6631    0.4022   -2.9672 H   0  0  0  0  0  0  0  0  0  0  0  0
    7.0054   -1.2362   -1.4329 H   0  0  0  0  0  0  0  0  0  0  0  0
    4.9479    1.4627   -1.0769 H   0  0  0  0  0  0  0  0  0  0  0  0
    4.3284    2.8506   -2.6711 H   0  0  0  0  0  0  0  0  0  0  0  0
    0.5788    1.6793    0.8870 H   0  0  0  0  0  0  0  0  0  0  0  0
    2.3921    2.7208   -0.0579 H   0  0  0  0  0  0  0  0  0  0  0  0
   -0.7170    4.3684    0.1738 H   0  0  0  0  0  0  0  0  0  0  0  0
    0.5525    4.1775    2.0656 H   0  0  0  0  0  0  0  0  0  0  0  0
   -2.1996    2.2798    1.7103 H   0  0  0  0  0  0  0  0  0  0  0  0
   -3.8812    3.1511    0.6334 H   0  0  0  0  0  0  0  0  0  0  0  0
   -1.6179   -4.1811    0.0341 H   0  0  0  0  0  0  0  0  0  0  0  0
    0.5855   -5.1916   -0.4493 H   0  0  0  0  0  0  0  0  0  0  0  0
    3.5380   -3.5380    0.5541 H   0  0  0  0  0  0  0  0  0  0  0  0
    3.0152   -1.2124    0.1835 H   0  0  0  0  0  0  0  0  0  0  0  0
    0.3605   -0.7017    1.6811 H   0  0  0  0  0  0  0  0  0  0  0  0
   -4.5979   -4.3033    2.9650 H   0  0  0  0  0  0  0  0  0  0  0  0
   -6.6325   -4.7526    3.8813 H   0  0  0  0  0  0  0  0  0  0  0  0
   -7.8788   -1.5214    3.1648 H   0  0  0  0  0  0  0  0  0  0  0  0
   -5.9837    1.0255    1.6348 H   0  0  0  0  0  0  0  0  0  0  0  0
  1  2  2  0
  2  3  1  0
  3  4  1  0
  4  5  1  0
  5  6  1  0
  6  7  1  0
  7  8  1  0
  8  9  1  0
  9 10  1  0
 10 11  1  0
 11 12  1  0
 12 13  1  0
 12 14  1  0
 14 15  1  0
 14 16  1  0
 16 17  1  0
 16 18  1  0
 18 19  1  0
  7 20  1  0
 20 21  1  0
 20 22  1  0
 22 23  1  0
 22 24  1  0
 24 25  1  0
  3 26  2  0
 26 27  1  0
 27 28  1  0
 28 29  2  0
 29 30  1  0
 30 31  1  0
 30 32  2  0
 32 33  1  0
 32 34  1  0
 26 35  1  0
 35 36  1  0
 36 37  2  0
 37 38  1  0
 38 39  1  0
 38 40  2  0
 40 41  1  0
 41 42  1  0
 41 43  2  0
 24  5  1  0
 18 10  1  0
 34 27  2  0
 43  2  1  0
 43 36  1  0
  5 44  1  6
  7 45  1  6
  8 46  1  0
  8 47  1  0
 10 48  1  6
 12 49  1  1
 13 50  1  0
 13 51  1  0
 13 52  1  0
 14 53  1  6
 15 54  1  0
 16 55  1  6
 17 56  1  0
 18 57  1  1
 19 58  1  0
 20 59  1  1
 21 60  1  0
 22 61  1  6
 23 62  1  0
 24 63  1  1
 25 64  1  0
 28 65  1  0
 29 66  1  0
 31 67  1  0
 33 68  1  0
 34 69  1  0
 37 70  1  0
 39 71  1  0
 40 72  1  0
 42 73  1  0
M  END
>  <clase>  (1) 
Flavonol

>  <carga>  (1) 
0

>  <InChIKey>  (1) 
IKGXIBQEEMLURG-FYIKAPSBSA-N

>  <parte_planta>  (1) 
fruto|hojas

$$$$
