Luteolina
     RDKit          3D

 31 33  0  0  0  0  0  0  0  0999 V2000
   -2.0611    3.0658   -0.4855 O   0  0  0  0  0  0  0  0  0  0  0  0
   -1.4129    2.0726   -0.1753 C   0  0  0  0  0  0  0  0  0  0  0  0
   -1.7862    0.7313   -0.6460 C   0  0  0  0  0  0  0  0  0  0  0  0
   -1.0403   -0.3189   -0.2735 C   0  0  0  0  0  0  0  0  0  0  0  0
   -1.3698   -1.6912   -0.7041 C   0  0  0  0  0  0  0  0  0  0  0  0
   -1.6885   -1.9778   -2.0447 C   0  0  0  0  0  0  0  0  0  0  0  0
   -1.9892   -3.2826   -2.4453 C   0  0  0  0  0  0  0  0  0  0  0  0
   -1.9662   -4.3008   -1.5062 C   0  0  0  0  0  0  0  0  0  0  0  0
   -2.2602   -5.5747   -1.8978 O   0  0  0  0  0  0  0  0  0  0  0  0
   -1.6456   -4.0369   -0.1781 C   0  0  0  0  0  0  0  0  0  0  0  0
   -1.6405   -5.0904    0.6944 O   0  0  0  0  0  0  0  0  0  0  0  0
   -1.3437   -2.7413    0.2301 C   0  0  0  0  0  0  0  0  0  0  0  0
    0.0702   -0.2353    0.5522 O   0  0  0  0  0  0  0  0  0  0  0  0
    0.4595    1.0028    1.0017 C   0  0  0  0  0  0  0  0  0  0  0  0
    1.5954    1.0522    1.8122 C   0  0  0  0  0  0  0  0  0  0  0  0
    2.0303    2.2832    2.2977 C   0  0  0  0  0  0  0  0  0  0  0  0
    3.1345    2.3815    3.0915 O   0  0  0  0  0  0  0  0  0  0  0  0
    1.3500    3.4580    1.9881 C   0  0  0  0  0  0  0  0  0  0  0  0
    0.2190    3.4027    1.1783 C   0  0  0  0  0  0  0  0  0  0  0  0
   -0.4088    4.5878    0.9060 O   0  0  0  0  0  0  0  0  0  0  0  0
   -0.2270    2.1737    0.6831 C   0  0  0  0  0  0  0  0  0  0  0  0
   -2.6661    0.6602   -1.2725 H   0  0  0  0  0  0  0  0  0  0  0  0
   -1.6941   -1.1910   -2.7963 H   0  0  0  0  0  0  0  0  0  0  0  0
   -2.2342   -3.5013   -3.4804 H   0  0  0  0  0  0  0  0  0  0  0  0
   -2.1802   -6.1084   -1.0822 H   0  0  0  0  0  0  0  0  0  0  0  0
   -1.4082   -4.7556    1.5776 H   0  0  0  0  0  0  0  0  0  0  0  0
   -1.0951   -2.5359    1.2672 H   0  0  0  0  0  0  0  0  0  0  0  0
    2.1237    0.1349    2.0517 H   0  0  0  0  0  0  0  0  0  0  0  0
    3.5258    1.5005    3.2108 H   0  0  0  0  0  0  0  0  0  0  0  0
    1.6996    4.4116    2.3740 H   0  0  0  0  0  0  0  0  0  0  0  0
   -1.1837    4.4022    0.3291 H   0  0  0  0  0  0  0  0  0  0  0  0
  1  2  2  0
  2  3  1  0
  3  4  2  0
  4  5  1  0
  5  6  1  0
  6  7  2  0
  7  8  1  0
  8  9  1  0
  8 10  2  0
 10 11  1  0
 10 12  1  0
  4 13  1  0
 13 14  1  0
 14 15  2  0
 15 16  1  0
 16 17  1  0
 16 18  2  0
 18 19  1  0
 19 20  1  0
 19 21  2  0
 21  2  1  0
 12  5  2  0
 21 14  1  0
  3 22  1  0
  6 23  1  0
  7 24  1  0
  9 25  1  0
 11 26  1  0
 12 27  1  0
 15 28  1  0
 17 29  1  0
 18 30  1  0
 20 31  1  0
M  END
>  <clase>  (1) 
Flavona

>  <carga>  (1) 
0

>  <InChIKey>  (1) 
IQPNAANSBPBGFQ-UHFFFAOYSA-N

$$$$
