Luteolina
     RDKit          3D

 31 33  0  0  0  0  0  0  0  0999 V2000
   -0.7881   -2.1784   -3.4925 O   0  0  0  0  0  0  0  0  0  0  0  0
   -0.7499   -1.5612   -2.4337 C   0  0  0  0  0  0  0  0  0  0  0  0
    0.5039   -1.3862   -1.6873 C   0  0  0  0  0  0  0  0  0  0  0  0
    0.4821   -0.7082   -0.5304 C   0  0  0  0  0  0  0  0  0  0  0  0
    1.7075   -0.4880    0.2623 C   0  0  0  0  0  0  0  0  0  0  0  0
    2.6357   -1.5232    0.4829 C   0  0  0  0  0  0  0  0  0  0  0  0
    3.7840   -1.3061    1.2517 C   0  0  0  0  0  0  0  0  0  0  0  0
    4.0022   -0.0550    1.8065 C   0  0  0  0  0  0  0  0  0  0  0  0
    5.0896    0.1311    2.6088 O   0  0  0  0  0  0  0  0  0  0  0  0
    3.1072    0.9837    1.5759 C   0  0  0  0  0  0  0  0  0  0  0  0
    3.3612    2.2361    2.0563 O   0  0  0  0  0  0  0  0  0  0  0  0
    1.9550    0.7729    0.8283 C   0  0  0  0  0  0  0  0  0  0  0  0
   -0.6561   -0.1348    0.0160 O   0  0  0  0  0  0  0  0  0  0  0  0
   -1.8469   -0.2778   -0.6514 C   0  0  0  0  0  0  0  0  0  0  0  0
   -2.9743    0.3032   -0.0718 C   0  0  0  0  0  0  0  0  0  0  0  0
   -4.2079    0.1888   -0.7074 C   0  0  0  0  0  0  0  0  0  0  0  0
   -5.2850    0.7711   -0.1073 O   0  0  0  0  0  0  0  0  0  0  0  0
   -4.3349   -0.4965   -1.9130 C   0  0  0  0  0  0  0  0  0  0  0  0
   -3.2051   -1.0745   -2.4872 C   0  0  0  0  0  0  0  0  0  0  0  0
   -3.3854   -1.7359   -3.6723 O   0  0  0  0  0  0  0  0  0  0  0  0
   -1.9605   -0.9658   -1.8573 C   0  0  0  0  0  0  0  0  0  0  0  0
    1.3967   -1.8131   -2.1250 H   0  0  0  0  0  0  0  0  0  0  0  0
    2.4652   -2.5180    0.0766 H   0  0  0  0  0  0  0  0  0  0  0  0
    4.4860   -2.1150    1.4318 H   0  0  0  0  0  0  0  0  0  0  0  0
    4.7932    0.7118    3.3341 H   0  0  0  0  0  0  0  0  0  0  0  0
    4.3261    2.3608    1.9908 H   0  0  0  0  0  0  0  0  0  0  0  0
    1.2658    1.5990    0.6715 H   0  0  0  0  0  0  0  0  0  0  0  0
   -2.8952    0.8415    0.8686 H   0  0  0  0  0  0  0  0  0  0  0  0
   -6.0728    0.6140   -0.6551 H   0  0  0  0  0  0  0  0  0  0  0  0
   -5.2927   -0.5902   -2.4150 H   0  0  0  0  0  0  0  0  0  0  0  0
   -2.5136   -2.0896   -3.9620 H   0  0  0  0  0  0  0  0  0  0  0  0
  1  2  2  0
  2  3  1  0
  3  4  2  0
  4  5  1  0
  5  6  1  0
  6  7  2  0
  7  8  1  0
  8  9  1  0
  8 10  2  0
 10 11  1  0
 10 12  1  0
  4 13  1  0
 13 14  1  0
 14 15  2  0
 15 16  1  0
 16 17  1  0
 16 18  2  0
 18 19  1  0
 19 20  1  0
 19 21  2  0
 21  2  1  0
 12  5  2  0
 21 14  1  0
  3 22  1  0
  6 23  1  0
  7 24  1  0
  9 25  1  0
 11 26  1  0
 12 27  1  0
 15 28  1  0
 17 29  1  0
 18 30  1  0
 20 31  1  0
M  END
>  <clase>  (1) 
Flavona

>  <carga>  (1) 
0

>  <InChIKey>  (1) 
IQPNAANSBPBGFQ-UHFFFAOYSA-N

>  <parte_planta>  (1) 
hojas

$$$$
