Petunidín-3-rutinosido
     RDKit          3D

 77 81  0  0  0  0  0  0  0  0999 V2000
    3.2383   -6.7665    3.7775 O   0  0  0  0  0  0  0  0  0  0  0  0
    2.5116   -6.0106    2.9132 C   0  0  0  0  0  0  0  0  0  0  0  0
    1.5198   -6.6533    2.1781 C   0  0  0  0  0  0  0  0  0  0  0  0
    0.7723   -5.9240    1.2528 C   0  0  0  0  0  0  0  0  0  0  0  0
   -0.1884   -6.5467    0.5058 O   0  0  0  0  0  0  0  0  0  0  0  0
    0.9912   -4.5478    1.0504 C   0  0  0  0  0  0  0  0  0  0  0  0
    0.2845   -3.7778    0.1194 C   0  0  0  0  0  0  0  0  0  0  0  0
    0.6025   -2.4319   -0.0846 C   0  0  0  0  0  0  0  0  0  0  0  0
   -0.1664   -1.6985   -0.9557 O   0  0  0  0  0  0  0  0  0  0  0  0
   -0.0039   -2.0884   -2.3380 C   0  0  2  0  0  0  0  0  0  0  0  0
    0.4568   -0.9848   -3.1199 O   0  0  0  0  0  0  0  0  0  0  0  0
   -0.4981   -0.0426   -3.6271 C   0  0  2  0  0  0  0  0  0  0  0  0
   -0.6490    1.1983   -2.7339 C   0  0  0  0  0  0  0  0  0  0  0  0
   -1.1519    0.8527   -1.4361 O   0  0  0  0  0  0  0  0  0  0  0  0
   -1.4815    2.0226   -0.6695 C   0  0  2  0  0  0  0  0  0  0  0  0
   -0.4032    2.9517   -0.6272 O   0  0  0  0  0  0  0  0  0  0  0  0
   -0.4162    3.8752    0.4767 C   0  0  1  0  0  0  0  0  0  0  0  0
    0.1928    5.1835   -0.0117 C   0  0  0  0  0  0  0  0  0  0  0  0
   -1.8123    4.0780    1.0877 C   0  0  2  0  0  0  0  0  0  0  0  0
   -1.7826    4.9935    2.1825 O   0  0  0  0  0  0  0  0  0  0  0  0
   -2.3904    2.7274    1.5547 C   0  0  2  0  0  0  0  0  0  0  0  0
   -2.0753    2.5250    2.9532 O   0  0  0  0  0  0  0  0  0  0  0  0
   -1.8316    1.5482    0.7488 C   0  0  1  0  0  0  0  0  0  0  0  0
   -2.7706    0.4635    0.7622 O   0  0  0  0  0  0  0  0  0  0  0  0
   -1.8545   -0.6524   -4.0026 C   0  0  1  0  0  0  0  0  0  0  0  0
   -2.3861   -0.0606   -5.1948 O   0  0  0  0  0  0  0  0  0  0  0  0
   -1.7129   -2.1555   -4.2005 C   0  0  2  0  0  0  0  0  0  0  0  0
   -2.9626   -2.7352   -4.5961 O   0  0  0  0  0  0  0  0  0  0  0  0
   -1.2857   -2.7655   -2.8694 C   0  0  1  0  0  0  0  0  0  0  0  0
   -1.0652   -4.1841   -3.0259 O   0  0  0  0  0  0  0  0  0  0  0  0
    1.5798   -1.8056    0.7051 C   0  0  0  0  0  0  0  0  0  0  0  0
    2.2276   -2.5348    1.7586 O   0  0  0  0  0  0  0  0  0  0  0  0
    1.9798   -3.9317    1.8289 C   0  0  0  0  0  0  0  0  0  0  0  0
    2.7404   -4.6538    2.7533 C   0  0  0  0  0  0  0  0  0  0  0  0
    2.0035   -0.4029    0.6359 C   0  0  0  0  0  0  0  0  0  0  0  0
    2.3544    0.2140   -0.5776 C   0  0  0  0  0  0  0  0  0  0  0  0
    2.8311    1.5198   -0.5870 C   0  0  0  0  0  0  0  0  0  0  0  0
    3.1716    2.0920   -1.7784 O   0  0  0  0  0  0  0  0  0  0  0  0
    2.9605    2.2338    0.5954 C   0  0  0  0  0  0  0  0  0  0  0  0
    3.4576    3.5110    0.5278 O   0  0  0  0  0  0  0  0  0  0  0  0
    2.5859    1.6665    1.8149 C   0  0  0  0  0  0  0  0  0  0  0  0
    2.7205    2.4858    2.9023 O   0  0  0  0  0  0  0  0  0  0  0  0
    1.9440    2.1527    4.0509 C   0  0  0  0  0  0  0  0  0  0  0  0
    2.1329    0.3441    1.8344 C   0  0  0  0  0  0  0  0  0  0  0  0
    3.9422   -6.2526    4.2180 H   0  0  0  0  0  0  0  0  0  0  0  0
    1.3455   -7.7200    2.3296 H   0  0  0  0  0  0  0  0  0  0  0  0
   -0.1681   -7.5071    0.6654 H   0  0  0  0  0  0  0  0  0  0  0  0
   -0.5206   -4.2473   -0.4499 H   0  0  0  0  0  0  0  0  0  0  0  0
    0.8187   -2.8110   -2.4151 H   0  0  0  0  0  0  0  0  0  0  0  0
   -0.0364    0.3348   -4.5496 H   0  0  0  0  0  0  0  0  0  0  0  0
   -1.3288    1.9111   -3.2041 H   0  0  0  0  0  0  0  0  0  0  0  0
    0.3306    1.6719   -2.6140 H   0  0  0  0  0  0  0  0  0  0  0  0
   -2.3512    2.4886   -1.1447 H   0  0  0  0  0  0  0  0  0  0  0  0
    0.2488    3.4721    1.2486 H   0  0  0  0  0  0  0  0  0  0  0  0
    0.3785    5.8687    0.8216 H   0  0  0  0  0  0  0  0  0  0  0  0
    1.1465    4.9970   -0.5224 H   0  0  0  0  0  0  0  0  0  0  0  0
   -0.4686    5.6689   -0.7384 H   0  0  0  0  0  0  0  0  0  0  0  0
   -2.4754    4.4863    0.3147 H   0  0  0  0  0  0  0  0  0  0  0  0
   -1.7866    4.4343    2.9867 H   0  0  0  0  0  0  0  0  0  0  0  0
   -3.4873    2.7661    1.4977 H   0  0  0  0  0  0  0  0  0  0  0  0
   -2.5860    1.7345    3.2156 H   0  0  0  0  0  0  0  0  0  0  0  0
   -0.9280    1.1574    1.2377 H   0  0  0  0  0  0  0  0  0  0  0  0
   -2.6627    0.0047   -0.0959 H   0  0  0  0  0  0  0  0  0  0  0  0
   -2.6017   -0.4599   -3.2246 H   0  0  0  0  0  0  0  0  0  0  0  0
   -1.7876   -0.2501   -5.9452 H   0  0  0  0  0  0  0  0  0  0  0  0
   -1.0033   -2.3952   -5.0006 H   0  0  0  0  0  0  0  0  0  0  0  0
   -3.4290   -2.0698   -5.1443 H   0  0  0  0  0  0  0  0  0  0  0  0
   -2.0980   -2.6806   -2.1311 H   0  0  0  0  0  0  0  0  0  0  0  0
   -1.5172   -4.4490   -3.8656 H   0  0  0  0  0  0  0  0  0  0  0  0
    3.5015   -4.1220    3.3162 H   0  0  0  0  0  0  0  0  0  0  0  0
    2.3056   -0.3123   -1.5295 H   0  0  0  0  0  0  0  0  0  0  0  0
    3.4474    3.0061   -1.5520 H   0  0  0  0  0  0  0  0  0  0  0  0
    3.4696    3.8394    1.4517 H   0  0  0  0  0  0  0  0  0  0  0  0
    0.9068    1.9066    3.7898 H   0  0  0  0  0  0  0  0  0  0  0  0
    2.4149    1.3304    4.5988 H   0  0  0  0  0  0  0  0  0  0  0  0
    1.9197    3.0285    4.7006 H   0  0  0  0  0  0  0  0  0  0  0  0
    1.8713   -0.1298    2.7812 H   0  0  0  0  0  0  0  0  0  0  0  0
  1  2  1  0
  2  3  2  0
  3  4  1  0
  4  5  1  0
  4  6  2  0
  6  7  1  0
  7  8  2  0
  8  9  1  0
  9 10  1  0
 10 11  1  0
 11 12  1  0
 12 13  1  0
 13 14  1  0
 14 15  1  0
 15 16  1  0
 16 17  1  0
 17 18  1  0
 17 19  1  0
 19 20  1  0
 19 21  1  0
 21 22  1  0
 21 23  1  0
 23 24  1  0
 12 25  1  0
 25 26  1  0
 25 27  1  0
 27 28  1  0
 27 29  1  0
 29 30  1  0
  8 31  1  0
 31 32  2  0
 32 33  1  0
 33 34  2  0
 31 35  1  0
 35 36  1  0
 36 37  2  0
 37 38  1  0
 37 39  1  0
 39 40  1  0
 39 41  2  0
 41 42  1  0
 42 43  1  0
 41 44  1  0
 29 10  1  0
 23 15  1  0
 44 35  2  0
 34  2  1  0
 33  6  1  0
  1 45  1  0
  3 46  1  0
  5 47  1  0
  7 48  1  0
 10 49  1  1
 12 50  1  6
 13 51  1  0
 13 52  1  0
 15 53  1  6
 17 54  1  1
 18 55  1  0
 18 56  1  0
 18 57  1  0
 19 58  1  6
 20 59  1  0
 21 60  1  1
 22 61  1  0
 23 62  1  1
 24 63  1  0
 25 64  1  1
 26 65  1  0
 27 66  1  6
 28 67  1  0
 29 68  1  1
 30 69  1  0
 34 70  1  0
 36 71  1  0
 38 72  1  0
 40 73  1  0
 43 74  1  0
 43 75  1  0
 43 76  1  0
 44 77  1  0
M  CHG  1  32   1
M  END
>  <clase>  (1) 
Antocianina

>  <carga>  (1) 
1

>  <InChIKey>  (1) 
IWTWNQZWPPSSQB-CBJDNGMYSA-O

>  <fuente>  (1) 
Ruiz 2024

$$$$
