Cianidín-3-glucósido
     RDKit          3D

 53 56  0  0  0  0  0  0  0  0999 V2000
   -2.2285    1.6240    3.0492 O   0  0  0  0  0  0  0  0  0  0  0  0
   -1.5972    0.5454    2.4403 C   0  0  0  0  0  0  0  0  0  0  0  0
   -1.0991   -0.4607    3.2757 C   0  0  0  0  0  0  0  0  0  0  0  0
   -0.3094   -1.8285    3.0832 C   0  0  0  0  0  0  0  0  0  0  0  0
    0.4417   -2.2224    4.1650 O   0  0  0  0  0  0  0  0  0  0  0  0
   -0.1994   -2.5002    1.8974 C   0  0  0  0  0  0  0  0  0  0  0  0
   -0.7099   -1.6750    0.9234 C   0  0  0  0  0  0  0  0  0  0  0  0
    0.1834   -0.7507    0.5411 C   0  0  0  0  0  0  0  0  0  0  0  0
   -0.2607    0.5159    0.3144 O   0  0  0  0  0  0  0  0  0  0  0  0
   -1.5945    0.6030    0.8353 C   0  0  2  0  0  0  0  0  0  0  0  0
   -2.4780    1.0905   -0.1744 O   0  0  0  0  0  0  0  0  0  0  0  0
   -2.3075    0.2713   -1.4764 C   0  0  2  0  0  0  0  0  0  0  0  0
   -3.2320    0.9831   -2.4791 C   0  0  0  0  0  0  0  0  0  0  0  0
   -2.8605    2.3596   -2.5622 O   0  0  0  0  0  0  0  0  0  0  0  0
   -2.5620   -1.3683   -1.4600 C   0  0  1  0  0  0  0  0  0  0  0  0
   -3.5270   -1.7008   -2.4759 O   0  0  0  0  0  0  0  0  0  0  0  0
   -1.2641   -2.3278   -1.7579 C   0  0  2  0  0  0  0  0  0  0  0  0
   -1.3183   -2.7903   -3.1234 O   0  0  0  0  0  0  0  0  0  0  0  0
   -1.0190   -3.6821   -0.8179 C   0  0  1  0  0  0  0  0  0  0  0  0
   -1.1263   -4.8402   -1.6456 O   0  0  0  0  0  0  0  0  0  0  0  0
    1.6667   -1.2330    0.6472 C   0  0  0  0  0  0  0  0  0  0  0  0
    1.9484   -2.5197    0.8867 O   0  0  0  0  0  0  0  0  0  0  0  0
    0.7577   -3.3146    1.1374 C   0  0  0  0  0  0  0  0  0  0  0  0
    0.3656   -3.8506   -0.0740 C   0  0  0  0  0  0  0  0  0  0  0  0
    2.7682   -0.2608    0.4171 C   0  0  0  0  0  0  0  0  0  0  0  0
    4.0063   -0.8036    0.0228 C   0  0  0  0  0  0  0  0  0  0  0  0
    5.1114    0.0247   -0.2047 C   0  0  0  0  0  0  0  0  0  0  0  0
    4.9749    1.3931   -0.0222 C   0  0  0  0  0  0  0  0  0  0  0  0
    6.0073    2.2618   -0.2223 O   0  0  0  0  0  0  0  0  0  0  0  0
    3.7564    1.9254    0.3898 C   0  0  0  0  0  0  0  0  0  0  0  0
    3.6282    3.2694    0.5876 O   0  0  0  0  0  0  0  0  0  0  0  0
    2.6511    1.1154    0.6188 C   0  0  0  0  0  0  0  0  0  0  0  0
   -2.5737    2.2348    2.3681 H   0  0  0  0  0  0  0  0  0  0  0  0
   -1.2657   -0.2692    4.3413 H   0  0  0  0  0  0  0  0  0  0  0  0
    0.2765   -1.6373    4.9288 H   0  0  0  0  0  0  0  0  0  0  0  0
   -1.7792   -1.8260    0.9594 H   0  0  0  0  0  0  0  0  0  0  0  0
   -2.2283   -0.2631    0.8342 H   0  0  0  0  0  0  0  0  0  0  0  0
   -1.2776    0.4566   -1.8030 H   0  0  0  0  0  0  0  0  0  0  0  0
   -4.2773    0.9386   -2.1573 H   0  0  0  0  0  0  0  0  0  0  0  0
   -3.1411    0.5589   -3.4828 H   0  0  0  0  0  0  0  0  0  0  0  0
   -2.9473    2.7210   -1.6607 H   0  0  0  0  0  0  0  0  0  0  0  0
   -3.0436   -1.6363   -0.5203 H   0  0  0  0  0  0  0  0  0  0  0  0
   -3.8652   -2.6031   -2.3125 H   0  0  0  0  0  0  0  0  0  0  0  0
   -0.3628   -1.7142   -1.7098 H   0  0  0  0  0  0  0  0  0  0  0  0
   -2.0007   -2.2549   -3.5855 H   0  0  0  0  0  0  0  0  0  0  0  0
   -1.8384   -3.7683   -0.0968 H   0  0  0  0  0  0  0  0  0  0  0  0
   -1.1679   -4.5147   -2.5734 H   0  0  0  0  0  0  0  0  0  0  0  0
    1.1726   -4.1543   -0.7405 H   0  0  0  0  0  0  0  0  0  0  0  0
    4.1210   -1.8801   -0.1075 H   0  0  0  0  0  0  0  0  0  0  0  0
    6.0573   -0.4121   -0.5133 H   0  0  0  0  0  0  0  0  0  0  0  0
    6.7974    1.7653   -0.5010 H   0  0  0  0  0  0  0  0  0  0  0  0
    4.5070    3.6477    0.3736 H   0  0  0  0  0  0  0  0  0  0  0  0
    1.7447    1.5936    0.9724 H   0  0  0  0  0  0  0  0  0  0  0  0
  1  2  1  0
  2  3  2  3
  3  4  1  0
  4  5  1  0
  4  6  2  3
  6  7  1  0
  7  8  2  0
  8  9  1  0
  9 10  1  0
 10 11  1  0
 11 12  1  0
 12 13  1  0
 13 14  1  0
 12 15  1  0
 15 16  1  0
 15 17  1  0
 17 18  1  0
 17 19  1  0
 19 20  1  0
  8 21  1  0
 21 22  2  0
 22 23  1  0
 23 24  2  3
 21 25  1  0
 25 26  1  0
 26 27  2  0
 27 28  1  0
 28 29  1  0
 28 30  2  0
 30 31  1  0
 30 32  1  0
 10  2  1  0
 24 19  1  0
 32 25  2  0
 23  6  1  0
  1 33  1  0
  3 34  1  0
  5 35  1  0
  7 36  1  0
 10 37  1  6
 12 38  1  6
 13 39  1  0
 13 40  1  0
 14 41  1  0
 15 42  1  1
 16 43  1  0
 17 44  1  6
 18 45  1  0
 19 46  1  1
 20 47  1  0
 24 48  1  0
 26 49  1  0
 27 50  1  0
 29 51  1  0
 31 52  1  0
 32 53  1  0
M  CHG  1  22   1
M  END
>  <clase>  (1) 
Antocianina

>  <carga>  (1) 
1

>  <InChIKey>  (1) 
IXCNBWVNVQJCIF-ZRQOLRHFSA-O

$$$$
