Isorhamnetina
     RDKit          3D

 35 37  0  0  0  0  0  0  0  0999 V2000
   -2.0862    2.2446    2.3688 O   0  0  0  0  0  0  0  0  0  0  0  0
   -1.6833    1.2388    1.7888 C   0  0  0  0  0  0  0  0  0  0  0  0
   -0.3640    1.2378    1.1159 C   0  0  0  0  0  0  0  0  0  0  0  0
    0.3702    2.4081    1.1657 O   0  0  0  0  0  0  0  0  0  0  0  0
    0.0358    0.1171    0.4874 C   0  0  0  0  0  0  0  0  0  0  0  0
    1.3256    0.0070   -0.2271 C   0  0  0  0  0  0  0  0  0  0  0  0
    2.5310    0.3896    0.3777 C   0  0  0  0  0  0  0  0  0  0  0  0
    3.7427    0.2533   -0.3012 C   0  0  0  0  0  0  0  0  0  0  0  0
    3.7538   -0.2748   -1.5908 C   0  0  0  0  0  0  0  0  0  0  0  0
    4.9421   -0.4102   -2.2583 O   0  0  0  0  0  0  0  0  0  0  0  0
    2.5664   -0.6720   -2.2193 C   0  0  0  0  0  0  0  0  0  0  0  0
    2.6932   -1.1810   -3.4852 O   0  0  0  0  0  0  0  0  0  0  0  0
    1.5028   -1.5339   -4.1739 C   0  0  0  0  0  0  0  0  0  0  0  0
    1.3583   -0.5307   -1.5272 C   0  0  0  0  0  0  0  0  0  0  0  0
   -0.7205   -1.0470    0.4197 O   0  0  0  0  0  0  0  0  0  0  0  0
   -1.9414   -1.0822    1.0449 C   0  0  0  0  0  0  0  0  0  0  0  0
   -2.6562   -2.2789    0.9658 C   0  0  0  0  0  0  0  0  0  0  0  0
   -3.9026   -2.3677    1.5807 C   0  0  0  0  0  0  0  0  0  0  0  0
   -4.6368   -3.5154    1.5313 O   0  0  0  0  0  0  0  0  0  0  0  0
   -4.4423   -1.2839    2.2684 C   0  0  0  0  0  0  0  0  0  0  0  0
   -3.7248   -0.0935    2.3444 C   0  0  0  0  0  0  0  0  0  0  0  0
   -4.3037    0.9373    3.0331 O   0  0  0  0  0  0  0  0  0  0  0  0
   -2.4722    0.0067    1.7323 C   0  0  0  0  0  0  0  0  0  0  0  0
   -0.1888    3.0450    1.6591 H   0  0  0  0  0  0  0  0  0  0  0  0
    2.5367    0.7985    1.3860 H   0  0  0  0  0  0  0  0  0  0  0  0
    4.6607    0.5610    0.1892 H   0  0  0  0  0  0  0  0  0  0  0  0
    5.6591   -0.0687   -1.7026 H   0  0  0  0  0  0  0  0  0  0  0  0
    1.7848   -1.8891   -5.1698 H   0  0  0  0  0  0  0  0  0  0  0  0
    0.9809   -2.3513   -3.6655 H   0  0  0  0  0  0  0  0  0  0  0  0
    0.8478   -0.6660   -4.3039 H   0  0  0  0  0  0  0  0  0  0  0  0
    0.4206   -0.8303   -1.9842 H   0  0  0  0  0  0  0  0  0  0  0  0
   -2.2324   -3.1219    0.4289 H   0  0  0  0  0  0  0  0  0  0  0  0
   -4.1453   -4.1922    1.0370 H   0  0  0  0  0  0  0  0  0  0  0  0
   -5.4162   -1.3669    2.7431 H   0  0  0  0  0  0  0  0  0  0  0  0
   -3.6989    1.7112    3.0073 H   0  0  0  0  0  0  0  0  0  0  0  0
  1  2  2  0
  2  3  1  0
  3  4  1  0
  3  5  2  0
  5  6  1  0
  6  7  1  0
  7  8  2  0
  8  9  1  0
  9 10  1  0
  9 11  2  0
 11 12  1  0
 12 13  1  0
 11 14  1  0
  5 15  1  0
 15 16  1  0
 16 17  2  0
 17 18  1  0
 18 19  1  0
 18 20  2  0
 20 21  1  0
 21 22  1  0
 21 23  2  0
 14  6  2  0
 23  2  1  0
 23 16  1  0
  4 24  1  0
  7 25  1  0
  8 26  1  0
 10 27  1  0
 13 28  1  0
 13 29  1  0
 13 30  1  0
 14 31  1  0
 17 32  1  0
 19 33  1  0
 20 34  1  0
 22 35  1  0
M  END
>  <clase>  (1) 
Flavonol

>  <carga>  (1) 
0

>  <InChIKey>  (1) 
IZQSVPBOUDKVDZ-UHFFFAOYSA-N

>  <parte_planta>  (1) 
hojas

$$$$
