Kaempferol-3-glucósido
     RDKit          3D

 52 55  0  0  0  0  0  0  0  0999 V2000
    1.2788    1.7003    1.3661 O   0  0  0  0  0  0  0  0  0  0  0  0
    0.9797    1.5138    0.1879 C   0  0  0  0  0  0  0  0  0  0  0  0
   -0.0474    0.5176   -0.1976 C   0  0  0  0  0  0  0  0  0  0  0  0
   -0.6864   -0.1591    0.8202 O   0  0  0  0  0  0  0  0  0  0  0  0
    0.1181   -1.2388    1.3340 C   0  0  2  0  0  0  0  0  0  0  0  0
   -0.3167   -2.4343    0.6889 O   0  0  0  0  0  0  0  0  0  0  0  0
   -0.1945   -3.6580    1.4348 C   0  0  2  0  0  0  0  0  0  0  0  0
   -1.5966   -4.0652    1.9100 C   0  0  0  0  0  0  0  0  0  0  0  0
   -2.4738   -4.1709    0.7850 O   0  0  0  0  0  0  0  0  0  0  0  0
    0.8382   -3.6085    2.5675 C   0  0  1  0  0  0  0  0  0  0  0  0
    2.1392   -3.4770    1.9666 O   0  0  0  0  0  0  0  0  0  0  0  0
    0.6238   -2.4229    3.5137 C   0  0  2  0  0  0  0  0  0  0  0  0
   -0.1175   -2.8481    4.6655 O   0  0  0  0  0  0  0  0  0  0  0  0
   -0.1048   -1.2466    2.8552 C   0  0  1  0  0  0  0  0  0  0  0  0
    0.3404   -0.0415    3.5047 O   0  0  0  0  0  0  0  0  0  0  0  0
   -0.3463    0.3722   -1.5023 C   0  0  0  0  0  0  0  0  0  0  0  0
   -1.3551   -0.5939   -1.9839 C   0  0  0  0  0  0  0  0  0  0  0  0
   -2.6507   -0.6390   -1.4441 C   0  0  0  0  0  0  0  0  0  0  0  0
   -3.5824   -1.5783   -1.8962 C   0  0  0  0  0  0  0  0  0  0  0  0
   -3.2223   -2.4678   -2.9017 C   0  0  0  0  0  0  0  0  0  0  0  0
   -4.0944   -3.4056   -3.3671 O   0  0  0  0  0  0  0  0  0  0  0  0
   -1.9538   -2.4279   -3.4653 C   0  0  0  0  0  0  0  0  0  0  0  0
   -1.0221   -1.4931   -3.0085 C   0  0  0  0  0  0  0  0  0  0  0  0
    0.2856    1.0615   -2.5275 O   0  0  0  0  0  0  0  0  0  0  0  0
    1.2434    1.9900   -2.2060 C   0  0  0  0  0  0  0  0  0  0  0  0
    1.8369    2.6743   -3.2686 C   0  0  0  0  0  0  0  0  0  0  0  0
    2.8160    3.6275   -3.0008 C   0  0  0  0  0  0  0  0  0  0  0  0
    3.4232    4.3211   -4.0053 O   0  0  0  0  0  0  0  0  0  0  0  0
    3.2085    3.9046   -1.6942 C   0  0  0  0  0  0  0  0  0  0  0  0
    2.6133    3.2193   -0.6387 C   0  0  0  0  0  0  0  0  0  0  0  0
    3.0405    3.5345    0.6224 O   0  0  0  0  0  0  0  0  0  0  0  0
    1.6288    2.2601   -0.8944 C   0  0  0  0  0  0  0  0  0  0  0  0
    1.1831   -1.0807    1.1164 H   0  0  0  0  0  0  0  0  0  0  0  0
    0.1324   -4.3961    0.6916 H   0  0  0  0  0  0  0  0  0  0  0  0
   -2.0372   -3.3259    2.5825 H   0  0  0  0  0  0  0  0  0  0  0  0
   -1.5772   -5.0333    2.4190 H   0  0  0  0  0  0  0  0  0  0  0  0
   -2.2180   -3.4507    0.1728 H   0  0  0  0  0  0  0  0  0  0  0  0
    0.8317   -4.5588    3.1140 H   0  0  0  0  0  0  0  0  0  0  0  0
    2.7970   -3.6918    2.6535 H   0  0  0  0  0  0  0  0  0  0  0  0
    1.5963   -2.0870    3.8959 H   0  0  0  0  0  0  0  0  0  0  0  0
   -0.2023   -2.0567    5.2339 H   0  0  0  0  0  0  0  0  0  0  0  0
   -1.1799   -1.3003    3.0626 H   0  0  0  0  0  0  0  0  0  0  0  0
    0.3837    0.6714    2.8309 H   0  0  0  0  0  0  0  0  0  0  0  0
   -2.9450    0.0539   -0.6585 H   0  0  0  0  0  0  0  0  0  0  0  0
   -4.5739   -1.5984   -1.4548 H   0  0  0  0  0  0  0  0  0  0  0  0
   -4.8910   -3.3923   -2.8109 H   0  0  0  0  0  0  0  0  0  0  0  0
   -1.6865   -3.1284   -4.2514 H   0  0  0  0  0  0  0  0  0  0  0  0
   -0.0280   -1.4849   -3.4497 H   0  0  0  0  0  0  0  0  0  0  0  0
    1.5278    2.4557   -4.2862 H   0  0  0  0  0  0  0  0  0  0  0  0
    3.0570    4.0386   -4.8598 H   0  0  0  0  0  0  0  0  0  0  0  0
    3.9739    4.6509   -1.4996 H   0  0  0  0  0  0  0  0  0  0  0  0
    2.5421    2.9887    1.2693 H   0  0  0  0  0  0  0  0  0  0  0  0
  1  2  2  0
  2  3  1  0
  3  4  1  0
  4  5  1  0
  5  6  1  0
  6  7  1  0
  7  8  1  0
  8  9  1  0
  7 10  1  0
 10 11  1  0
 10 12  1  0
 12 13  1  0
 12 14  1  0
 14 15  1  0
  3 16  2  0
 16 17  1  0
 17 18  1  0
 18 19  2  0
 19 20  1  0
 20 21  1  0
 20 22  2  0
 22 23  1  0
 16 24  1  0
 24 25  1  0
 25 26  2  0
 26 27  1  0
 27 28  1  0
 27 29  2  0
 29 30  1  0
 30 31  1  0
 30 32  2  0
 14  5  1  0
 23 17  2  0
 32  2  1  0
 32 25  1  0
  5 33  1  1
  7 34  1  6
  8 35  1  0
  8 36  1  0
  9 37  1  0
 10 38  1  1
 11 39  1  0
 12 40  1  1
 13 41  1  0
 14 42  1  6
 15 43  1  0
 18 44  1  0
 19 45  1  0
 21 46  1  0
 22 47  1  0
 23 48  1  0
 26 49  1  0
 28 50  1  0
 29 51  1  0
 31 52  1  0
M  END
>  <clase>  (1) 
Flavonol

>  <carga>  (1) 
0

>  <InChIKey>  (1) 
JPUKWEQWGBDDQB-QSOFNFLRSA-N

>  <fuente>  (1) 
Molecules 2019

$$$$
