Malvidín-3-glucósido
     RDKit          3D

 60 63  0  0  0  0  0  0  0  0999 V2000
    2.0364    3.2453   -1.7194 O   0  0  0  0  0  0  0  0  0  0  0  0
    1.2151    2.1449   -1.6725 C   0  0  0  0  0  0  0  0  0  0  0  0
   -0.0909    2.1451   -2.0521 C   0  0  0  0  0  0  0  0  0  0  0  0
   -1.0504    0.9989   -2.0021 C   0  0  0  0  0  0  0  0  0  0  0  0
   -2.3272    1.3395   -2.4286 O   0  0  0  0  0  0  0  0  0  0  0  0
   -0.8819   -0.2819   -1.5637 C   0  0  0  0  0  0  0  0  0  0  0  0
    0.2277   -1.0483   -0.8990 C   0  0  0  0  0  0  0  0  0  0  0  0
    0.4742   -0.5301    0.2799 C   0  0  0  0  0  0  0  0  0  0  0  0
    1.3151    0.6009    0.2278 O   0  0  0  0  0  0  0  0  0  0  0  0
    1.8228    0.8633   -1.1659 C   0  0  2  0  0  0  0  0  0  0  0  0
    2.9672    0.2146   -1.7571 O   0  0  0  0  0  0  0  0  0  0  0  0
    2.6923   -1.1456   -2.3923 C   0  0  2  0  0  0  0  0  0  0  0  0
    4.0415   -1.5941   -2.9706 C   0  0  0  0  0  0  0  0  0  0  0  0
    4.9900   -1.6791   -1.9053 O   0  0  0  0  0  0  0  0  0  0  0  0
    1.4833   -1.3007   -3.5009 C   0  0  1  0  0  0  0  0  0  0  0  0
    2.0370   -1.2820   -4.8264 O   0  0  0  0  0  0  0  0  0  0  0  0
    0.5247   -2.6053   -3.3541 C   0  0  2  0  0  0  0  0  0  0  0  0
    0.8526   -3.4648   -4.4724 O   0  0  0  0  0  0  0  0  0  0  0  0
   -1.1174   -2.4045   -3.3453 C   0  0  1  0  0  0  0  0  0  0  0  0
   -1.6673   -3.5902   -3.9423 O   0  0  0  0  0  0  0  0  0  0  0  0
   -0.9816   -0.7208    0.9225 C   0  0  0  0  0  0  0  0  0  0  0  0
   -2.0551   -1.2152    0.2169 O   0  0  0  0  0  0  0  0  0  0  0  0
   -1.9514   -1.1507   -1.2543 C   0  0  0  0  0  0  0  0  0  0  0  0
   -1.9671   -2.2673   -2.0214 C   0  0  0  0  0  0  0  0  0  0  0  0
   -1.1024   -0.4461    2.3838 C   0  0  0  0  0  0  0  0  0  0  0  0
   -0.0429    0.0264    3.1742 C   0  0  0  0  0  0  0  0  0  0  0  0
   -0.2414    0.2644    4.5358 C   0  0  0  0  0  0  0  0  0  0  0  0
    0.7125    0.7251    5.4004 O   0  0  0  0  0  0  0  0  0  0  0  0
    2.0047    1.0236    4.8919 C   0  0  0  0  0  0  0  0  0  0  0  0
   -1.5062    0.0185    5.0861 C   0  0  0  0  0  0  0  0  0  0  0  0
   -1.7121    0.2479    6.4236 O   0  0  0  0  0  0  0  0  0  0  0  0
   -2.5715   -0.4561    4.3099 C   0  0  0  0  0  0  0  0  0  0  0  0
   -3.7437   -0.6473    4.9917 O   0  0  0  0  0  0  0  0  0  0  0  0
   -4.8544   -1.1542    4.2601 C   0  0  0  0  0  0  0  0  0  0  0  0
   -2.3649   -0.6866    2.9529 C   0  0  0  0  0  0  0  0  0  0  0  0
    1.5798    4.0048   -2.1214 H   0  0  0  0  0  0  0  0  0  0  0  0
   -0.4964    3.0883   -2.4151 H   0  0  0  0  0  0  0  0  0  0  0  0
   -2.3584    2.2557   -2.7669 H   0  0  0  0  0  0  0  0  0  0  0  0
    0.1077   -2.1384   -0.8202 H   0  0  0  0  0  0  0  0  0  0  0  0
    1.2107    0.3583   -1.8507 H   0  0  0  0  0  0  0  0  0  0  0  0
    2.4825   -1.7977   -1.5385 H   0  0  0  0  0  0  0  0  0  0  0  0
    3.9675   -2.5836   -3.4306 H   0  0  0  0  0  0  0  0  0  0  0  0
    4.4266   -0.8783   -3.7037 H   0  0  0  0  0  0  0  0  0  0  0  0
    5.0960   -0.7666   -1.5732 H   0  0  0  0  0  0  0  0  0  0  0  0
    0.8473   -0.4212   -3.5116 H   0  0  0  0  0  0  0  0  0  0  0  0
    1.9238   -2.1900   -5.1870 H   0  0  0  0  0  0  0  0  0  0  0  0
    0.8094   -3.1777   -2.4666 H   0  0  0  0  0  0  0  0  0  0  0  0
    0.4148   -4.3252   -4.3057 H   0  0  0  0  0  0  0  0  0  0  0  0
   -1.3702   -1.5784   -4.0216 H   0  0  0  0  0  0  0  0  0  0  0  0
   -1.4681   -3.5446   -4.8997 H   0  0  0  0  0  0  0  0  0  0  0  0
   -2.4754   -3.1530   -1.6524 H   0  0  0  0  0  0  0  0  0  0  0  0
    0.9335    0.2122    2.7420 H   0  0  0  0  0  0  0  0  0  0  0  0
    2.6158    1.3910    5.7218 H   0  0  0  0  0  0  0  0  0  0  0  0
    1.9575    1.8139    4.1356 H   0  0  0  0  0  0  0  0  0  0  0  0
    2.4871    0.1251    4.4936 H   0  0  0  0  0  0  0  0  0  0  0  0
   -2.6422    0.0144    6.6049 H   0  0  0  0  0  0  0  0  0  0  0  0
   -4.6358   -2.1456    3.8501 H   0  0  0  0  0  0  0  0  0  0  0  0
   -5.1551   -0.4576    3.4707 H   0  0  0  0  0  0  0  0  0  0  0  0
   -5.6940   -1.2563    4.9542 H   0  0  0  0  0  0  0  0  0  0  0  0
   -3.1699   -1.0537    2.3212 H   0  0  0  0  0  0  0  0  0  0  0  0
  1  2  1  0
  2  3  2  3
  3  4  1  0
  4  5  1  0
  4  6  2  3
  6  7  1  0
  7  8  2  0
  8  9  1  0
  9 10  1  0
 10 11  1  0
 11 12  1  0
 12 13  1  0
 13 14  1  0
 12 15  1  0
 15 16  1  0
 15 17  1  0
 17 18  1  0
 17 19  1  0
 19 20  1  0
  8 21  1  0
 21 22  2  0
 22 23  1  0
 23 24  2  3
 21 25  1  0
 25 26  1  0
 26 27  2  0
 27 28  1  0
 28 29  1  0
 27 30  1  0
 30 31  1  0
 30 32  2  0
 32 33  1  0
 33 34  1  0
 32 35  1  0
 10  2  1  0
 24 19  1  0
 35 25  2  0
 23  6  1  0
  1 36  1  0
  3 37  1  0
  5 38  1  0
  7 39  1  0
 10 40  1  6
 12 41  1  1
 13 42  1  0
 13 43  1  0
 14 44  1  0
 15 45  1  6
 16 46  1  0
 17 47  1  1
 18 48  1  0
 19 49  1  6
 20 50  1  0
 24 51  1  0
 26 52  1  0
 29 53  1  0
 29 54  1  0
 29 55  1  0
 31 56  1  0
 34 57  1  0
 34 58  1  0
 34 59  1  0
 35 60  1  0
M  CHG  1  22   1
M  END
>  <clase>  (1) 
Antocianina

>  <carga>  (1) 
1

>  <InChIKey>  (1) 
KIRYGULMPJVJMU-VXHXMGGCSA-O

$$$$
