3,5-Dicafeoilquínico
     RDKit          3D

 61 63  0  0  0  0  0  0  0  0999 V2000
   -1.8625    3.2947   -3.7032 O   0  0  0  0  0  0  0  0  0  0  0  0
   -1.2256    2.5764   -2.6447 C   0  0  2  0  0  0  0  0  0  0  0  0
   -1.4787    1.0582   -2.7920 C   0  0  1  0  0  0  0  0  0  0  0  0
   -0.3315    0.3824   -2.2156 O   0  0  0  0  0  0  0  0  0  0  0  0
   -0.1536   -0.9172   -2.5524 C   0  0  0  0  0  0  0  0  0  0  0  0
   -0.7693   -1.5502   -3.3901 O   0  0  0  0  0  0  0  0  0  0  0  0
    0.8726   -1.4616   -1.6398 C   0  0  0  0  0  0  0  0  0  0  0  0
    1.1066   -2.7815   -1.5966 C   0  0  0  0  0  0  0  0  0  0  0  0
    1.9994   -3.4243   -0.6206 C   0  0  0  0  0  0  0  0  0  0  0  0
    3.1114   -2.7740   -0.0568 C   0  0  0  0  0  0  0  0  0  0  0  0
    3.9040   -3.4068    0.9086 C   0  0  0  0  0  0  0  0  0  0  0  0
    3.5902   -4.7003    1.2999 C   0  0  0  0  0  0  0  0  0  0  0  0
    4.3030   -5.3589    2.2620 O   0  0  0  0  0  0  0  0  0  0  0  0
    2.5134   -5.3641    0.7213 C   0  0  0  0  0  0  0  0  0  0  0  0
    2.2056   -6.6351    1.1142 O   0  0  0  0  0  0  0  0  0  0  0  0
    1.7217   -4.7432   -0.2362 C   0  0  0  0  0  0  0  0  0  0  0  0
   -2.7311    0.5726   -2.0388 C   0  0  0  0  0  0  0  0  0  0  0  0
   -3.8135    1.6341   -1.8647 C   0  0  2  0  0  0  0  0  0  0  0  0
   -4.8055    1.0814   -0.9709 O   0  0  0  0  0  0  0  0  0  0  0  0
   -4.5427    1.8983   -3.1963 C   0  0  0  0  0  0  0  0  0  0  0  0
   -4.2220    1.5467   -4.3176 O   0  0  0  0  0  0  0  0  0  0  0  0
   -5.7086    2.5648   -3.0018 O   0  0  0  0  0  0  0  0  0  0  0  0
   -3.2876    2.9312   -1.2174 C   0  0  0  0  0  0  0  0  0  0  0  0
   -1.7622    3.1051   -1.3049 C   0  0  1  0  0  0  0  0  0  0  0  0
   -1.1560    2.4049   -0.1991 O   0  0  0  0  0  0  0  0  0  0  0  0
    0.1224    2.7566    0.0786 C   0  0  0  0  0  0  0  0  0  0  0  0
    0.7353    3.6811   -0.4342 O   0  0  0  0  0  0  0  0  0  0  0  0
    0.7569    1.8439    1.0504 C   0  0  0  0  0  0  0  0  0  0  0  0
    0.1707    0.7540    1.5712 C   0  0  0  0  0  0  0  0  0  0  0  0
    0.8553   -0.1916    2.4688 C   0  0  0  0  0  0  0  0  0  0  0  0
    1.8396    0.2190    3.3859 C   0  0  0  0  0  0  0  0  0  0  0  0
    2.4746   -0.7071    4.2190 C   0  0  0  0  0  0  0  0  0  0  0  0
    2.1122   -2.0411    4.1447 C   0  0  0  0  0  0  0  0  0  0  0  0
    2.7421   -2.9550    4.9398 O   0  0  0  0  0  0  0  0  0  0  0  0
    1.1222   -2.4599    3.2622 C   0  0  0  0  0  0  0  0  0  0  0  0
    0.8150   -3.7919    3.2528 O   0  0  0  0  0  0  0  0  0  0  0  0
    0.4876   -1.5468    2.4257 C   0  0  0  0  0  0  0  0  0  0  0  0
   -1.3440    4.1058   -3.8571 H   0  0  0  0  0  0  0  0  0  0  0  0
   -0.1476    2.7586   -2.7262 H   0  0  0  0  0  0  0  0  0  0  0  0
   -1.5502    0.8101   -3.8585 H   0  0  0  0  0  0  0  0  0  0  0  0
    1.3517   -0.7566   -0.9732 H   0  0  0  0  0  0  0  0  0  0  0  0
    0.5663   -3.4498   -2.2667 H   0  0  0  0  0  0  0  0  0  0  0  0
    3.3750   -1.7618   -0.3538 H   0  0  0  0  0  0  0  0  0  0  0  0
    4.7437   -2.8729    1.3421 H   0  0  0  0  0  0  0  0  0  0  0  0
    4.9288   -4.7258    2.6570 H   0  0  0  0  0  0  0  0  0  0  0  0
    2.8951   -6.8617    1.7708 H   0  0  0  0  0  0  0  0  0  0  0  0
    0.8829   -5.2889   -0.6605 H   0  0  0  0  0  0  0  0  0  0  0  0
   -2.4502    0.1840   -1.0492 H   0  0  0  0  0  0  0  0  0  0  0  0
   -3.1417   -0.3060   -2.5553 H   0  0  0  0  0  0  0  0  0  0  0  0
   -5.5859    1.6668   -1.0410 H   0  0  0  0  0  0  0  0  0  0  0  0
   -6.0748    2.6349   -3.9104 H   0  0  0  0  0  0  0  0  0  0  0  0
   -3.5883    2.9741   -0.1623 H   0  0  0  0  0  0  0  0  0  0  0  0
   -3.7586    3.7959   -1.7025 H   0  0  0  0  0  0  0  0  0  0  0  0
   -1.5595    4.1801   -1.2071 H   0  0  0  0  0  0  0  0  0  0  0  0
    1.7854    2.1065    1.2729 H   0  0  0  0  0  0  0  0  0  0  0  0
   -0.8520    0.4939    1.3044 H   0  0  0  0  0  0  0  0  0  0  0  0
    2.1212    1.2657    3.4732 H   0  0  0  0  0  0  0  0  0  0  0  0
    3.2381   -0.3871    4.9214 H   0  0  0  0  0  0  0  0  0  0  0  0
    2.2889   -3.7996    4.7369 H   0  0  0  0  0  0  0  0  0  0  0  0
    0.3135   -3.9882    2.4411 H   0  0  0  0  0  0  0  0  0  0  0  0
   -0.2828   -1.8836    1.7379 H   0  0  0  0  0  0  0  0  0  0  0  0
  1  2  1  0
  2  3  1  0
  3  4  1  0
  4  5  1  0
  5  6  2  0
  5  7  1  0
  7  8  2  0
  8  9  1  0
  9 10  1  0
 10 11  2  0
 11 12  1  0
 12 13  1  0
 12 14  2  0
 14 15  1  0
 14 16  1  0
  3 17  1  0
 17 18  1  0
 18 19  1  1
 18 20  1  0
 20 21  2  0
 20 22  1  0
 18 23  1  0
 23 24  1  0
 24 25  1  0
 25 26  1  0
 26 27  2  0
 26 28  1  0
 28 29  2  0
 29 30  1  0
 30 31  1  0
 31 32  2  0
 32 33  1  0
 33 34  1  0
 33 35  2  0
 35 36  1  0
 35 37  1  0
 24  2  1  0
 37 30  2  0
 16  9  2  0
  1 38  1  0
  2 39  1  1
  3 40  1  6
  7 41  1  0
  8 42  1  0
 10 43  1  0
 11 44  1  0
 13 45  1  0
 15 46  1  0
 16 47  1  0
 17 48  1  0
 17 49  1  0
 19 50  1  0
 22 51  1  0
 23 52  1  0
 23 53  1  0
 24 54  1  1
 28 55  1  0
 29 56  1  0
 31 57  1  0
 32 58  1  0
 34 59  1  0
 36 60  1  0
 37 61  1  0
M  END
>  <clase>  (1) 
Ác. Hidroxicinámico

>  <carga>  (1) 
0

>  <InChIKey>  (1) 
KRZBCHWVBQOTNZ-CPYUJKAUSA-N

>  <parte_planta>  (1) 
fruto

$$$$
