3,5-Dicafeoilquínico
     RDKit          3D

 61 63  0  0  0  0  0  0  0  0999 V2000
   -1.3535    1.2701    0.6540 O   0  0  0  0  0  0  0  0  0  0  0  0
    0.0510    1.2947    0.3506 C   0  0  2  0  0  0  0  0  0  0  0  0
    0.8507    1.4447    1.6535 C   0  0  1  0  0  0  0  0  0  0  0  0
    0.6208    0.2589    2.4499 O   0  0  0  0  0  0  0  0  0  0  0  0
    0.8050    0.3979    3.7839 C   0  0  0  0  0  0  0  0  0  0  0  0
    1.2131    1.3993    4.3529 O   0  0  0  0  0  0  0  0  0  0  0  0
    0.4728   -0.8405    4.5172 C   0  0  0  0  0  0  0  0  0  0  0  0
   -0.0720   -1.9287    3.9509 C   0  0  0  0  0  0  0  0  0  0  0  0
   -0.4160   -3.1430    4.7023 C   0  0  0  0  0  0  0  0  0  0  0  0
    0.4458   -3.6855    5.6707 C   0  0  0  0  0  0  0  0  0  0  0  0
    0.1054   -4.8583    6.3503 C   0  0  0  0  0  0  0  0  0  0  0  0
   -1.0919   -5.4892    6.0530 C   0  0  0  0  0  0  0  0  0  0  0  0
   -1.4247   -6.6347    6.7164 O   0  0  0  0  0  0  0  0  0  0  0  0
   -1.9494   -4.9698    5.0876 C   0  0  0  0  0  0  0  0  0  0  0  0
   -3.1136   -5.6455    4.8433 O   0  0  0  0  0  0  0  0  0  0  0  0
   -1.6178   -3.8039    4.4041 C   0  0  0  0  0  0  0  0  0  0  0  0
    2.3490    1.5629    1.3657 C   0  0  0  0  0  0  0  0  0  0  0  0
    2.6969    2.6575    0.3575 C   0  0  2  0  0  0  0  0  0  0  0  0
    4.0505    2.4080   -0.0757 O   0  0  0  0  0  0  0  0  0  0  0  0
    2.6803    4.0451    1.0183 C   0  0  0  0  0  0  0  0  0  0  0  0
    3.6793    4.6961    1.2898 O   0  0  0  0  0  0  0  0  0  0  0  0
    1.4579    4.5026    1.3289 O   0  0  0  0  0  0  0  0  0  0  0  0
    1.8288    2.5933   -0.9004 C   0  0  0  0  0  0  0  0  0  0  0  0
    0.3325    2.4510   -0.6198 C   0  0  1  0  0  0  0  0  0  0  0  0
   -0.3621    2.1403   -1.8538 O   0  0  0  0  0  0  0  0  0  0  0  0
   -0.6419    3.1955   -2.6581 C   0  0  0  0  0  0  0  0  0  0  0  0
   -0.3696    4.3636   -2.4294 O   0  0  0  0  0  0  0  0  0  0  0  0
   -1.3475    2.7778   -3.8864 C   0  0  0  0  0  0  0  0  0  0  0  0
   -1.5926    1.5016   -4.2232 C   0  0  0  0  0  0  0  0  0  0  0  0
   -2.2850    1.1085   -5.4584 C   0  0  0  0  0  0  0  0  0  0  0  0
   -1.8583   -0.0478   -6.1348 C   0  0  0  0  0  0  0  0  0  0  0  0
   -2.5005   -0.4783   -7.3018 C   0  0  0  0  0  0  0  0  0  0  0  0
   -3.5812    0.2467   -7.7845 C   0  0  0  0  0  0  0  0  0  0  0  0
   -4.2518   -0.1200   -8.9177 O   0  0  0  0  0  0  0  0  0  0  0  0
   -4.0196    1.3831   -7.1113 C   0  0  0  0  0  0  0  0  0  0  0  0
   -5.0903    2.0856   -7.5869 O   0  0  0  0  0  0  0  0  0  0  0  0
   -3.3872    1.8177   -5.9533 C   0  0  0  0  0  0  0  0  0  0  0  0
   -1.8224    1.2639   -0.2006 H   0  0  0  0  0  0  0  0  0  0  0  0
    0.2709    0.3289   -0.1217 H   0  0  0  0  0  0  0  0  0  0  0  0
    0.4712    2.3154    2.2019 H   0  0  0  0  0  0  0  0  0  0  0  0
    0.6839   -0.7896    5.5800 H   0  0  0  0  0  0  0  0  0  0  0  0
   -0.3141   -1.9456    2.8906 H   0  0  0  0  0  0  0  0  0  0  0  0
    1.3963   -3.2090    5.8998 H   0  0  0  0  0  0  0  0  0  0  0  0
    0.7707   -5.2762    7.0997 H   0  0  0  0  0  0  0  0  0  0  0  0
   -2.2927   -6.8897    6.3452 H   0  0  0  0  0  0  0  0  0  0  0  0
   -3.6144   -5.1545    4.1693 H   0  0  0  0  0  0  0  0  0  0  0  0
   -2.2858   -3.3981    3.6501 H   0  0  0  0  0  0  0  0  0  0  0  0
    2.7204    0.5940    1.0017 H   0  0  0  0  0  0  0  0  0  0  0  0
    2.9001    1.7242    2.3013 H   0  0  0  0  0  0  0  0  0  0  0  0
    4.6397    2.9317    0.5059 H   0  0  0  0  0  0  0  0  0  0  0  0
    1.6155    5.3772    1.7475 H   0  0  0  0  0  0  0  0  0  0  0  0
    2.1534    1.7512   -1.5288 H   0  0  0  0  0  0  0  0  0  0  0  0
    2.0098    3.4772   -1.5257 H   0  0  0  0  0  0  0  0  0  0  0  0
   -0.0973    3.3702   -0.2053 H   0  0  0  0  0  0  0  0  0  0  0  0
   -1.6417    3.6066   -4.5222 H   0  0  0  0  0  0  0  0  0  0  0  0
   -1.2589    0.6812   -3.5926 H   0  0  0  0  0  0  0  0  0  0  0  0
   -1.0109   -0.6198   -5.7614 H   0  0  0  0  0  0  0  0  0  0  0  0
   -2.1442   -1.3697   -7.8078 H   0  0  0  0  0  0  0  0  0  0  0  0
   -3.8277   -0.9181   -9.2774 H   0  0  0  0  0  0  0  0  0  0  0  0
   -5.3629    1.6030   -8.3929 H   0  0  0  0  0  0  0  0  0  0  0  0
   -3.7700    2.6989   -5.4470 H   0  0  0  0  0  0  0  0  0  0  0  0
  1  2  1  0
  2  3  1  0
  3  4  1  0
  4  5  1  0
  5  6  2  0
  5  7  1  0
  7  8  2  0
  8  9  1  0
  9 10  1  0
 10 11  2  0
 11 12  1  0
 12 13  1  0
 12 14  2  0
 14 15  1  0
 14 16  1  0
  3 17  1  0
 17 18  1  0
 18 19  1  6
 18 20  1  0
 20 21  2  0
 20 22  1  0
 18 23  1  0
 23 24  1  0
 24 25  1  0
 25 26  1  0
 26 27  2  0
 26 28  1  0
 28 29  2  0
 29 30  1  0
 30 31  1  0
 31 32  2  0
 32 33  1  0
 33 34  1  0
 33 35  2  0
 35 36  1  0
 35 37  1  0
 24  2  1  0
 37 30  2  0
 16  9  2  0
  1 38  1  0
  2 39  1  6
  3 40  1  1
  7 41  1  0
  8 42  1  0
 10 43  1  0
 11 44  1  0
 13 45  1  0
 15 46  1  0
 16 47  1  0
 17 48  1  0
 17 49  1  0
 19 50  1  0
 22 51  1  0
 23 52  1  0
 23 53  1  0
 24 54  1  1
 28 55  1  0
 29 56  1  0
 31 57  1  0
 32 58  1  0
 34 59  1  0
 36 60  1  0
 37 61  1  0
M  END
>  <clase>  (1) 
Ác. Hidroxicinámico

>  <carga>  (1) 
0

>  <InChIKey>  (1) 
KRZBCHWVBQOTNZ-CPYUJKAUSA-N

$$$$
