Ácido Ferúlico
     RDKit          3D

 24 24  0  0  0  0  0  0  0  0999 V2000
   -3.8156   -2.6128   -0.5604 O   0  0  0  0  0  0  0  0  0  0  0  0
   -3.7367   -1.3319   -0.9495 C   0  0  0  0  0  0  0  0  0  0  0  0
   -4.7113   -0.7250   -1.3559 O   0  0  0  0  0  0  0  0  0  0  0  0
   -2.3917   -0.7521   -0.8353 C   0  0  0  0  0  0  0  0  0  0  0  0
   -1.3279   -1.4267   -0.3727 C   0  0  0  0  0  0  0  0  0  0  0  0
    0.0206   -0.8508   -0.2690 C   0  0  0  0  0  0  0  0  0  0  0  0
    1.1213   -1.6644   -0.5744 C   0  0  0  0  0  0  0  0  0  0  0  0
    2.4201   -1.1683   -0.4664 C   0  0  0  0  0  0  0  0  0  0  0  0
    2.6133    0.1384   -0.0413 C   0  0  0  0  0  0  0  0  0  0  0  0
    3.8968    0.6024    0.0574 O   0  0  0  0  0  0  0  0  0  0  0  0
    1.5366    0.9693    0.2862 C   0  0  0  0  0  0  0  0  0  0  0  0
    1.8854    2.2299    0.6997 O   0  0  0  0  0  0  0  0  0  0  0  0
    0.8190    3.1091    1.0386 C   0  0  0  0  0  0  0  0  0  0  0  0
    0.2385    0.4658    0.1756 C   0  0  0  0  0  0  0  0  0  0  0  0
   -4.7580   -2.8417   -0.6981 H   0  0  0  0  0  0  0  0  0  0  0  0
   -2.3237    0.2762   -1.1716 H   0  0  0  0  0  0  0  0  0  0  0  0
   -1.4202   -2.4677   -0.0692 H   0  0  0  0  0  0  0  0  0  0  0  0
    0.9767   -2.6899   -0.9078 H   0  0  0  0  0  0  0  0  0  0  0  0
    3.2731   -1.7943   -0.7099 H   0  0  0  0  0  0  0  0  0  0  0  0
    3.8080    1.5233    0.3712 H   0  0  0  0  0  0  0  0  0  0  0  0
    1.2577    4.0661    1.3371 H   0  0  0  0  0  0  0  0  0  0  0  0
    0.1708    3.2945    0.1758 H   0  0  0  0  0  0  0  0  0  0  0  0
    0.2470    2.7250    1.8897 H   0  0  0  0  0  0  0  0  0  0  0  0
   -0.6170    1.0764    0.4428 H   0  0  0  0  0  0  0  0  0  0  0  0
  1  2  1  0
  2  3  2  0
  2  4  1  0
  4  5  2  0
  5  6  1  0
  6  7  1  0
  7  8  2  0
  8  9  1  0
  9 10  1  0
  9 11  2  0
 11 12  1  0
 12 13  1  0
 11 14  1  0
 14  6  2  0
  1 15  1  0
  4 16  1  0
  5 17  1  0
  7 18  1  0
  8 19  1  0
 10 20  1  0
 13 21  1  0
 13 22  1  0
 13 23  1  0
 14 24  1  0
M  END
>  <clase>  (1) 
Ác. Hidroxicinámico

>  <carga>  (1) 
0

>  <InChIKey>  (1) 
KSEBMYQBYZTDHS-HWKANZROSA-N

>  <parte_planta>  (1) 
hojas

$$$$
