Ácido Ferúlico
     RDKit          3D

 24 24  0  0  0  0  0  0  0  0999 V2000
    1.6935    2.5673   -2.2919 O   0  0  0  0  0  0  0  0  0  0  0  0
    1.7067    2.9648   -1.0108 C   0  0  0  0  0  0  0  0  0  0  0  0
    2.2935    3.9731   -0.6609 O   0  0  0  0  0  0  0  0  0  0  0  0
    0.9611    2.0838   -0.1021 C   0  0  0  0  0  0  0  0  0  0  0  0
    0.3273    0.9700   -0.5009 C   0  0  0  0  0  0  0  0  0  0  0  0
   -0.4287    0.0931    0.4050 C   0  0  0  0  0  0  0  0  0  0  0  0
    0.0269   -0.2103    1.6966 C   0  0  0  0  0  0  0  0  0  0  0  0
   -0.7021   -1.0683    2.5199 C   0  0  0  0  0  0  0  0  0  0  0  0
   -1.8793   -1.6283    2.0442 C   0  0  0  0  0  0  0  0  0  0  0  0
   -2.5758   -2.4671    2.8711 O   0  0  0  0  0  0  0  0  0  0  0  0
   -2.3516   -1.3568    0.7560 C   0  0  0  0  0  0  0  0  0  0  0  0
   -3.5243   -1.9870    0.4258 O   0  0  0  0  0  0  0  0  0  0  0  0
   -4.0432   -1.7292   -0.8739 C   0  0  0  0  0  0  0  0  0  0  0  0
   -1.6161   -0.4977   -0.0631 C   0  0  0  0  0  0  0  0  0  0  0  0
    2.2272    3.2486   -2.7509 H   0  0  0  0  0  0  0  0  0  0  0  0
    0.9541    2.4159    0.9300 H   0  0  0  0  0  0  0  0  0  0  0  0
    0.3322    0.6757   -1.5484 H   0  0  0  0  0  0  0  0  0  0  0  0
    0.9579    0.2061    2.0734 H   0  0  0  0  0  0  0  0  0  0  0  0
   -0.3527   -1.3031    3.5208 H   0  0  0  0  0  0  0  0  0  0  0  0
   -3.3537   -2.7456    2.3497 H   0  0  0  0  0  0  0  0  0  0  0  0
   -4.2827   -0.6682   -0.9999 H   0  0  0  0  0  0  0  0  0  0  0  0
   -3.3527   -2.0753   -1.6500 H   0  0  0  0  0  0  0  0  0  0  0  0
   -4.9737   -2.2952   -0.9798 H   0  0  0  0  0  0  0  0  0  0  0  0
   -1.9500   -0.2640   -1.0691 H   0  0  0  0  0  0  0  0  0  0  0  0
  1  2  1  0
  2  3  2  0
  2  4  1  0
  4  5  2  0
  5  6  1  0
  6  7  1  0
  7  8  2  0
  8  9  1  0
  9 10  1  0
  9 11  2  0
 11 12  1  0
 12 13  1  0
 11 14  1  0
 14  6  2  0
  1 15  1  0
  4 16  1  0
  5 17  1  0
  7 18  1  0
  8 19  1  0
 10 20  1  0
 13 21  1  0
 13 22  1  0
 13 23  1  0
 14 24  1  0
M  END
>  <clase>  (1) 
Ác. Hidroxicinámico

>  <carga>  (1) 
0

>  <InChIKey>  (1) 
KSEBMYQBYZTDHS-HWKANZROSA-N

$$$$
