Ácido Gálico
     RDKit          3D

 18 18  0  0  0  0  0  0  0  0999 V2000
   -0.4887    2.1948   -1.5727 O   0  0  0  0  0  0  0  0  0  0  0  0
   -0.6340    0.8639   -1.4658 C   0  0  0  0  0  0  0  0  0  0  0  0
   -0.3761    0.1184   -2.3930 O   0  0  0  0  0  0  0  0  0  0  0  0
   -1.1263    0.4387   -0.1343 C   0  0  0  0  0  0  0  0  0  0  0  0
   -1.4006    1.3642    0.8837 C   0  0  0  0  0  0  0  0  0  0  0  0
   -1.8598    0.9047    2.1108 C   0  0  0  0  0  0  0  0  0  0  0  0
   -2.1282    1.8008    3.1044 O   0  0  0  0  0  0  0  0  0  0  0  0
   -2.0466   -0.4539    2.3317 C   0  0  0  0  0  0  0  0  0  0  0  0
   -2.5004   -0.8729    3.5529 O   0  0  0  0  0  0  0  0  0  0  0  0
   -1.7755   -1.3730    1.3247 C   0  0  0  0  0  0  0  0  0  0  0  0
   -1.9778   -2.6966    1.5994 O   0  0  0  0  0  0  0  0  0  0  0  0
   -1.3146   -0.9377    0.0872 C   0  0  0  0  0  0  0  0  0  0  0  0
   -0.1633    2.3319   -2.4868 H   0  0  0  0  0  0  0  0  0  0  0  0
   -1.2612    2.4306    0.7311 H   0  0  0  0  0  0  0  0  0  0  0  0
   -2.4316    1.2542    3.8576 H   0  0  0  0  0  0  0  0  0  0  0  0
   -2.5516   -1.8476    3.4705 H   0  0  0  0  0  0  0  0  0  0  0  0
   -1.7478   -3.2144    0.8072 H   0  0  0  0  0  0  0  0  0  0  0  0
   -1.0986   -1.6448   -0.7094 H   0  0  0  0  0  0  0  0  0  0  0  0
  1  2  1  0
  2  3  2  0
  2  4  1  0
  4  5  1  0
  5  6  2  0
  6  7  1  0
  6  8  1  0
  8  9  1  0
  8 10  2  0
 10 11  1  0
 10 12  1  0
 12  4  2  0
  1 13  1  0
  5 14  1  0
  7 15  1  0
  9 16  1  0
 11 17  1  0
 12 18  1  0
M  END
>  <clase>  (1) 
Ác. Hidroxibenzoico

>  <carga>  (1) 
0

>  <InChIKey>  (1) 
LNTHITQWFMADLM-UHFFFAOYSA-N

$$$$
