Ácido Gálico
     RDKit          3D

 18 18  0  0  0  0  0  0  0  0999 V2000
   -1.7960    2.8472   -0.5249 O   0  0  0  0  0  0  0  0  0  0  0  0
   -0.9320    2.3474    0.3751 C   0  0  0  0  0  0  0  0  0  0  0  0
   -0.7118    2.9156    1.4285 O   0  0  0  0  0  0  0  0  0  0  0  0
   -0.3131    1.0742   -0.0640 C   0  0  0  0  0  0  0  0  0  0  0  0
    0.6076    0.4609    0.7994 C   0  0  0  0  0  0  0  0  0  0  0  0
    1.2049   -0.7338    0.4157 C   0  0  0  0  0  0  0  0  0  0  0  0
    2.1094   -1.3753    1.2179 O   0  0  0  0  0  0  0  0  0  0  0  0
    0.8961   -1.3197   -0.8116 C   0  0  0  0  0  0  0  0  0  0  0  0
    1.5032   -2.4962   -1.1566 O   0  0  0  0  0  0  0  0  0  0  0  0
   -0.0172   -0.7119   -1.6688 C   0  0  0  0  0  0  0  0  0  0  0  0
   -0.3087   -1.2987   -2.8672 O   0  0  0  0  0  0  0  0  0  0  0  0
   -0.6264    0.4870   -1.3007 C   0  0  0  0  0  0  0  0  0  0  0  0
   -2.1217    3.6734   -0.1087 H   0  0  0  0  0  0  0  0  0  0  0  0
    0.8435    0.9230    1.7542 H   0  0  0  0  0  0  0  0  0  0  0  0
    2.2249   -0.8557    2.0327 H   0  0  0  0  0  0  0  0  0  0  0  0
    2.0861   -2.7099   -0.4032 H   0  0  0  0  0  0  0  0  0  0  0  0
   -0.9562   -0.7586   -3.3456 H   0  0  0  0  0  0  0  0  0  0  0  0
   -1.3395    0.9655   -1.9653 H   0  0  0  0  0  0  0  0  0  0  0  0
  1  2  1  0
  2  3  2  0
  2  4  1  0
  4  5  1  0
  5  6  2  0
  6  7  1  0
  6  8  1  0
  8  9  1  0
  8 10  2  0
 10 11  1  0
 10 12  1  0
 12  4  2  0
  1 13  1  0
  5 14  1  0
  7 15  1  0
  9 16  1  0
 11 17  1  0
 12 18  1  0
M  END
>  <clase>  (1) 
Ác. Hidroxibenzoico

>  <carga>  (1) 
0

>  <InChIKey>  (1) 
LNTHITQWFMADLM-UHFFFAOYSA-N

>  <parte_planta>  (1) 
hojas|tallo

$$$$
