Peonidín-3-rutinosido
     RDKit          3D

 76 80  0  0  0  0  0  0  0  0999 V2000
    0.0488    3.2975    3.6325 O   0  0  0  0  0  0  0  0  0  0  0  0
    0.5521    2.9175    2.3974 C   0  0  0  0  0  0  0  0  0  0  0  0
    1.8727    2.7216    2.2171 C   0  0  0  0  0  0  0  0  0  0  0  0
    2.4409    2.3104    0.9517 C   0  0  0  0  0  0  0  0  0  0  0  0
    3.3951    3.1983    0.5239 O   0  0  0  0  0  0  0  0  0  0  0  0
    1.9995    1.2476    0.2441 C   0  0  0  0  0  0  0  0  0  0  0  0
    1.0841    0.2336    0.7972 C   0  0  0  0  0  0  0  0  0  0  0  0
   -0.2111    0.3204    1.1629 C   0  0  0  0  0  0  0  0  0  0  0  0
   -1.0281    1.4125    1.3069 O   0  0  0  0  0  0  0  0  0  0  0  0
   -0.5056    2.7527    1.3033 C   0  0  2  0  0  0  0  0  0  0  0  0
   -0.0459    3.2524    0.0339 O   0  0  0  0  0  0  0  0  0  0  0  0
   -0.5077    2.5468   -1.1251 C   0  0  2  0  0  0  0  0  0  0  0  0
    0.6395    2.5010   -2.1407 C   0  0  0  0  0  0  0  0  0  0  0  0
    1.2125    1.1716   -2.0673 O   0  0  0  0  0  0  0  0  0  0  0  0
    2.3571    0.9804   -1.2246 C   0  0  2  0  0  0  0  0  0  0  0  0
    2.7254   -0.4117   -1.2601 O   0  0  0  0  0  0  0  0  0  0  0  0
    2.7588   -1.0418   -2.5414 C   0  0  1  0  0  0  0  0  0  0  0  0
    4.2083   -1.1119   -3.0118 C   0  0  0  0  0  0  0  0  0  0  0  0
    2.1448   -2.4622   -2.3876 C   0  0  2  0  0  0  0  0  0  0  0  0
    1.9595   -3.1065   -3.6515 O   0  0  0  0  0  0  0  0  0  0  0  0
    0.8128   -2.5292   -1.5797 C   0  0  2  0  0  0  0  0  0  0  0  0
    0.3658   -3.9046   -1.5307 O   0  0  0  0  0  0  0  0  0  0  0  0
   -0.3291   -1.6763   -2.1768 C   0  0  1  0  0  0  0  0  0  0  0  0
   -1.0380   -2.4889   -3.1391 O   0  0  0  0  0  0  0  0  0  0  0  0
   -1.8820    3.0598   -1.5466 C   0  0  1  0  0  0  0  0  0  0  0  0
   -1.7840    4.4101   -2.0189 O   0  0  0  0  0  0  0  0  0  0  0  0
   -2.6684    2.2271   -2.5942 C   0  0  2  0  0  0  0  0  0  0  0  0
   -4.0681    2.4680   -2.3594 O   0  0  0  0  0  0  0  0  0  0  0  0
   -2.4668    0.6794   -2.6966 C   0  0  1  0  0  0  0  0  0  0  0  0
   -1.3853    0.4626   -3.5894 O   0  0  0  0  0  0  0  0  0  0  0  0
   -0.9154   -1.0173    1.1858 C   0  0  0  0  0  0  0  0  0  0  0  0
   -1.3944   -1.6443    0.1323 O   0  0  0  0  0  0  0  0  0  0  0  0
   -1.3148   -1.0559   -1.1715 C   0  0  0  0  0  0  0  0  0  0  0  0
   -2.2494   -0.1142   -1.4271 C   0  0  0  0  0  0  0  0  0  0  0  0
   -1.0448   -1.6558    2.5351 C   0  0  0  0  0  0  0  0  0  0  0  0
   -0.7385   -0.9962    3.7349 C   0  0  0  0  0  0  0  0  0  0  0  0
   -0.8800   -1.6695    4.9472 C   0  0  0  0  0  0  0  0  0  0  0  0
   -1.3242   -2.9862    4.9517 C   0  0  0  0  0  0  0  0  0  0  0  0
   -1.4475   -3.6122    6.1599 O   0  0  0  0  0  0  0  0  0  0  0  0
   -1.6397   -3.6609    3.7682 C   0  0  0  0  0  0  0  0  0  0  0  0
   -2.0638   -4.9515    3.9346 O   0  0  0  0  0  0  0  0  0  0  0  0
   -2.3944   -5.6847    2.7597 C   0  0  0  0  0  0  0  0  0  0  0  0
   -1.5003   -2.9877    2.5555 C   0  0  0  0  0  0  0  0  0  0  0  0
    0.7881    3.5454    4.2187 H   0  0  0  0  0  0  0  0  0  0  0  0
    2.5859    2.9018    3.0165 H   0  0  0  0  0  0  0  0  0  0  0  0
    4.0123    2.7760   -0.0944 H   0  0  0  0  0  0  0  0  0  0  0  0
    1.5539   -0.7514    0.7879 H   0  0  0  0  0  0  0  0  0  0  0  0
   -1.3521    3.3976    1.5669 H   0  0  0  0  0  0  0  0  0  0  0  0
   -0.6621    1.5208   -0.8587 H   0  0  0  0  0  0  0  0  0  0  0  0
    0.2569    2.6086   -3.1593 H   0  0  0  0  0  0  0  0  0  0  0  0
    1.4104    3.2597   -1.9706 H   0  0  0  0  0  0  0  0  0  0  0  0
    3.1938    1.5781   -1.5970 H   0  0  0  0  0  0  0  0  0  0  0  0
    2.2005   -0.4873   -3.3026 H   0  0  0  0  0  0  0  0  0  0  0  0
    4.6268   -0.1042   -3.1068 H   0  0  0  0  0  0  0  0  0  0  0  0
    4.8318   -1.6430   -2.2844 H   0  0  0  0  0  0  0  0  0  0  0  0
    4.2913   -1.6144   -3.9801 H   0  0  0  0  0  0  0  0  0  0  0  0
    2.8623   -3.0905   -1.8435 H   0  0  0  0  0  0  0  0  0  0  0  0
    1.3250   -2.5975   -4.1911 H   0  0  0  0  0  0  0  0  0  0  0  0
    1.0230   -2.2439   -0.5513 H   0  0  0  0  0  0  0  0  0  0  0  0
    0.9130   -4.4035   -2.1774 H   0  0  0  0  0  0  0  0  0  0  0  0
    0.1323   -0.8686   -2.7330 H   0  0  0  0  0  0  0  0  0  0  0  0
   -1.0578   -3.3917   -2.7520 H   0  0  0  0  0  0  0  0  0  0  0  0
   -2.5075    3.1291   -0.6470 H   0  0  0  0  0  0  0  0  0  0  0  0
   -1.3123    4.9251   -1.3344 H   0  0  0  0  0  0  0  0  0  0  0  0
   -2.4640    2.6518   -3.5864 H   0  0  0  0  0  0  0  0  0  0  0  0
   -4.2021    3.4321   -2.4654 H   0  0  0  0  0  0  0  0  0  0  0  0
   -3.3619    0.2505   -3.1668 H   0  0  0  0  0  0  0  0  0  0  0  0
   -1.7324    0.5785   -4.4972 H   0  0  0  0  0  0  0  0  0  0  0  0
   -2.9645    0.1062   -0.6382 H   0  0  0  0  0  0  0  0  0  0  0  0
   -0.4005    0.0369    3.7672 H   0  0  0  0  0  0  0  0  0  0  0  0
   -0.6508   -1.1753    5.8888 H   0  0  0  0  0  0  0  0  0  0  0  0
   -1.7746   -4.5128    5.9646 H   0  0  0  0  0  0  0  0  0  0  0  0
   -3.2312   -5.2194    2.2286 H   0  0  0  0  0  0  0  0  0  0  0  0
   -1.5226   -5.7939    2.1062 H   0  0  0  0  0  0  0  0  0  0  0  0
   -2.7090   -6.6862    3.0680 H   0  0  0  0  0  0  0  0  0  0  0  0
   -1.7355   -3.4782    1.6141 H   0  0  0  0  0  0  0  0  0  0  0  0
  1  2  1  0
  2  3  2  3
  3  4  1  0
  4  5  1  0
  4  6  2  3
  6  7  1  0
  7  8  2  3
  8  9  1  0
  9 10  1  0
 10 11  1  0
 11 12  1  0
 12 13  1  0
 13 14  1  0
 14 15  1  0
 15 16  1  0
 16 17  1  0
 17 18  1  0
 17 19  1  0
 19 20  1  0
 19 21  1  0
 21 22  1  0
 21 23  1  0
 23 24  1  0
 12 25  1  0
 25 26  1  0
 25 27  1  0
 27 28  1  0
 27 29  1  0
 29 30  1  0
  8 31  1  0
 31 32  2  3
 32 33  1  0
 33 34  2  3
 31 35  1  0
 35 36  1  0
 36 37  2  0
 37 38  1  0
 38 39  1  0
 38 40  2  0
 40 41  1  0
 41 42  1  0
 40 43  1  0
 10  2  1  0
 34 29  1  0
 43 35  2  0
 15  6  1  0
 33 23  1  0
  1 44  1  0
  3 45  1  0
  5 46  1  0
  7 47  1  0
 10 48  1  1
 12 49  1  1
 13 50  1  0
 13 51  1  0
 15 52  1  6
 17 53  1  6
 18 54  1  0
 18 55  1  0
 18 56  1  0
 19 57  1  1
 20 58  1  0
 21 59  1  1
 22 60  1  0
 23 61  1  6
 24 62  1  0
 25 63  1  1
 26 64  1  0
 27 65  1  6
 28 66  1  0
 29 67  1  6
 30 68  1  0
 34 69  1  0
 36 70  1  0
 37 71  1  0
 39 72  1  0
 42 73  1  0
 42 74  1  0
 42 75  1  0
 43 76  1  0
M  CHG  1  32   1
M  END
>  <clase>  (1) 
Antocianina

>  <carga>  (1) 
1

>  <InChIKey>  (1) 
LWSMCVGWROVMRP-DHAVVHIUSA-O

$$$$
