Isorhamnetina
     RDKit          3D

 35 37  0  0  0  0  0  0  0  0999 V2000
   -4.5558    2.4122   -0.1162 O   0  0  0  0  0  0  0  0  0  0  0  0
   -3.5704    1.8182   -0.5177 C   0  0  0  0  0  0  0  0  0  0  0  0
   -2.9874    1.5739   -1.8375 C   0  0  0  0  0  0  0  0  0  0  0  0
   -3.3165    1.8807   -3.0403 O   0  0  0  0  0  0  0  0  0  0  0  0
   -1.9333    0.9197   -1.2672 C   0  0  0  0  0  0  0  0  0  0  0  0
   -2.4886    1.0457    0.0714 C   0  0  0  0  0  0  0  0  0  0  0  0
   -2.3364    0.7281    1.3616 C   0  0  0  0  0  0  0  0  0  0  0  0
   -1.3576   -0.0292    2.1019 C   0  0  0  0  0  0  0  0  0  0  0  0
   -0.8649   -1.2593    1.8836 C   0  0  0  0  0  0  0  0  0  0  0  0
    0.0276   -1.8497    2.7642 O   0  0  0  0  0  0  0  0  0  0  0  0
   -1.0959   -2.0924    0.7197 C   0  0  0  0  0  0  0  0  0  0  0  0
   -2.1020   -3.0086    0.9220 O   0  0  0  0  0  0  0  0  0  0  0  0
   -2.4035   -3.8965   -0.1463 C   0  0  0  0  0  0  0  0  0  0  0  0
   -0.3253   -1.9663   -0.3787 C   0  0  0  0  0  0  0  0  0  0  0  0
   -0.9078    0.3597   -1.7933 O   0  0  0  0  0  0  0  0  0  0  0  0
    0.2961    0.2969   -1.1404 C   0  0  0  0  0  0  0  0  0  0  0  0
    1.1819    1.3715   -1.2588 C   0  0  0  0  0  0  0  0  0  0  0  0
    2.4485    1.2655   -0.6945 C   0  0  0  0  0  0  0  0  0  0  0  0
    3.3507    2.2848   -0.7820 O   0  0  0  0  0  0  0  0  0  0  0  0
    2.8367    0.1119   -0.0213 C   0  0  0  0  0  0  0  0  0  0  0  0
    1.9435   -0.9518    0.0915 C   0  0  0  0  0  0  0  0  0  0  0  0
    2.3621   -2.0326    0.8200 O   0  0  0  0  0  0  0  0  0  0  0  0
    0.6707   -0.8875   -0.4917 C   0  0  0  0  0  0  0  0  0  0  0  0
   -4.1643    2.3647   -3.0145 H   0  0  0  0  0  0  0  0  0  0  0  0
   -3.1026    1.1359    2.0261 H   0  0  0  0  0  0  0  0  0  0  0  0
   -1.0848    0.4628    3.0351 H   0  0  0  0  0  0  0  0  0  0  0  0
    0.1544   -1.2556    3.5225 H   0  0  0  0  0  0  0  0  0  0  0  0
   -2.7333   -3.3455   -1.0332 H   0  0  0  0  0  0  0  0  0  0  0  0
   -3.2269   -4.5416    0.1743 H   0  0  0  0  0  0  0  0  0  0  0  0
   -1.5458   -4.5362   -0.3786 H   0  0  0  0  0  0  0  0  0  0  0  0
   -0.4426   -2.5802   -1.2630 H   0  0  0  0  0  0  0  0  0  0  0  0
    0.8774    2.2591   -1.8028 H   0  0  0  0  0  0  0  0  0  0  0  0
    2.9677    3.0002   -1.3159 H   0  0  0  0  0  0  0  0  0  0  0  0
    3.8240    0.0448    0.4259 H   0  0  0  0  0  0  0  0  0  0  0  0
    1.5661   -2.4655    1.1862 H   0  0  0  0  0  0  0  0  0  0  0  0
  1  2  2  0
  2  3  1  0
  3  4  1  0
  3  5  2  0
  5  6  1  0
  6  7  2  3
  7  8  1  0
  8  9  2  3
  9 10  1  0
  9 11  1  0
 11 12  1  0
 12 13  1  0
 11 14  2  3
  5 15  1  0
 15 16  1  0
 16 17  2  0
 17 18  1  0
 18 19  1  0
 18 20  2  0
 20 21  1  0
 21 22  1  0
 21 23  2  0
  6  2  1  0
 23 14  1  0
 23 16  1  0
  4 24  1  0
  7 25  1  0
  8 26  1  0
 10 27  1  0
 13 28  1  0
 13 29  1  0
 13 30  1  0
 14 31  1  0
 17 32  1  0
 19 33  1  0
 20 34  1  0
 22 35  1  0
M  END
>  <clase>  (1) 
Flavonol

>  <carga>  (1) 
0

>  <InChIKey>  (1) 
MMGAZLMNEKBPHW-UHFFFAOYSA-N

$$$$
