Quercetín-3-malonilgalactosido
     RDKit          3D

 61 64  0  0  0  0  0  0  0  0999 V2000
   -1.5661   -0.8347    3.7342 O   0  0  0  0  0  0  0  0  0  0  0  0
   -2.0497   -1.0701    2.6297 C   0  0  0  0  0  0  0  0  0  0  0  0
   -1.2218   -1.1580    1.3949 C   0  0  0  0  0  0  0  0  0  0  0  0
    0.1484   -0.9865    1.4740 O   0  0  0  0  0  0  0  0  0  0  0  0
    0.5455    0.2931    1.9921 C   0  0  2  0  0  0  0  0  0  0  0  0
    1.0234    1.0988    0.8976 O   0  0  0  0  0  0  0  0  0  0  0  0
    2.4381    1.3352    0.8764 C   0  0  2  0  0  0  0  0  0  0  0  0
    2.8015    1.9521   -0.4815 C   0  0  0  0  0  0  0  0  0  0  0  0
    2.6047    1.0035   -1.5433 O   0  0  0  0  0  0  0  0  0  0  0  0
    2.9713    1.4730   -2.7734 C   0  0  0  0  0  0  0  0  0  0  0  0
    3.3753    2.6074   -2.9872 O   0  0  0  0  0  0  0  0  0  0  0  0
    2.7291    0.4297   -3.8151 C   0  0  0  0  0  0  0  0  0  0  0  0
    3.6842    0.5096   -4.9569 C   0  0  0  0  0  0  0  0  0  0  0  0
    4.8875    0.6990   -4.8983 O   0  0  0  0  0  0  0  0  0  0  0  0
    3.0943    0.2662   -6.1463 O   0  0  0  0  0  0  0  0  0  0  0  0
    3.2023    0.0370    1.1699 C   0  0  2  0  0  0  0  0  0  0  0  0
    2.8077   -1.0475    0.3067 O   0  0  0  0  0  0  0  0  0  0  0  0
    2.9345   -0.3967    2.6211 C   0  0  2  0  0  0  0  0  0  0  0  0
    3.0736   -1.8178    2.7397 O   0  0  0  0  0  0  0  0  0  0  0  0
    1.5602    0.0647    3.1386 C   0  0  1  0  0  0  0  0  0  0  0  0
    1.7357    1.2933    3.8727 O   0  0  0  0  0  0  0  0  0  0  0  0
   -1.8427   -1.4861    0.2454 C   0  0  0  0  0  0  0  0  0  0  0  0
   -1.1171   -1.6669   -1.0277 C   0  0  0  0  0  0  0  0  0  0  0  0
   -0.0524   -2.5803   -1.1316 C   0  0  0  0  0  0  0  0  0  0  0  0
    0.6058   -2.7747   -2.3478 C   0  0  0  0  0  0  0  0  0  0  0  0
    0.1921   -2.0607   -3.4604 C   0  0  0  0  0  0  0  0  0  0  0  0
    0.8408   -2.2448   -4.6473 O   0  0  0  0  0  0  0  0  0  0  0  0
   -0.8603   -1.1538   -3.3751 C   0  0  0  0  0  0  0  0  0  0  0  0
   -1.2044   -0.4750   -4.5111 O   0  0  0  0  0  0  0  0  0  0  0  0
   -1.5214   -0.9528   -2.1681 C   0  0  0  0  0  0  0  0  0  0  0  0
   -3.2098   -1.6722    0.1112 O   0  0  0  0  0  0  0  0  0  0  0  0
   -4.0020   -1.5699    1.2247 C   0  0  0  0  0  0  0  0  0  0  0  0
   -5.3715   -1.7763    1.0440 C   0  0  0  0  0  0  0  0  0  0  0  0
   -6.2235   -1.6856    2.1414 C   0  0  0  0  0  0  0  0  0  0  0  0
   -7.5668   -1.8796    2.0143 O   0  0  0  0  0  0  0  0  0  0  0  0
   -5.7291   -1.3936    3.4090 C   0  0  0  0  0  0  0  0  0  0  0  0
   -4.3626   -1.1918    3.5824 C   0  0  0  0  0  0  0  0  0  0  0  0
   -3.9365   -0.9116    4.8524 O   0  0  0  0  0  0  0  0  0  0  0  0
   -3.4954   -1.2788    2.4879 C   0  0  0  0  0  0  0  0  0  0  0  0
   -0.3067    0.8569    2.3902 H   0  0  0  0  0  0  0  0  0  0  0  0
    2.6685    2.0922    1.6359 H   0  0  0  0  0  0  0  0  0  0  0  0
    2.1582    2.8203   -0.6690 H   0  0  0  0  0  0  0  0  0  0  0  0
    3.8520    2.2663   -0.4676 H   0  0  0  0  0  0  0  0  0  0  0  0
    2.8352   -0.5681   -3.3787 H   0  0  0  0  0  0  0  0  0  0  0  0
    1.7044    0.5635   -4.1744 H   0  0  0  0  0  0  0  0  0  0  0  0
    3.8342    0.3132   -6.7888 H   0  0  0  0  0  0  0  0  0  0  0  0
    4.2795    0.1732    1.0242 H   0  0  0  0  0  0  0  0  0  0  0  0
    2.2033   -0.6748   -0.3680 H   0  0  0  0  0  0  0  0  0  0  0  0
    3.7094    0.0443    3.2601 H   0  0  0  0  0  0  0  0  0  0  0  0
    2.9245   -2.1617    1.8313 H   0  0  0  0  0  0  0  0  0  0  0  0
    1.1545   -0.6759    3.8380 H   0  0  0  0  0  0  0  0  0  0  0  0
    2.0530    1.0403    4.7596 H   0  0  0  0  0  0  0  0  0  0  0  0
    0.2725   -3.1523   -0.2640 H   0  0  0  0  0  0  0  0  0  0  0  0
    1.4291   -3.4791   -2.4227 H   0  0  0  0  0  0  0  0  0  0  0  0
    0.3678   -1.6734   -5.2857 H   0  0  0  0  0  0  0  0  0  0  0  0
   -1.9602    0.1030   -4.3072 H   0  0  0  0  0  0  0  0  0  0  0  0
   -2.3442   -0.2474   -2.0994 H   0  0  0  0  0  0  0  0  0  0  0  0
   -5.7533   -2.0060    0.0541 H   0  0  0  0  0  0  0  0  0  0  0  0
   -7.7762   -2.1013    1.0920 H   0  0  0  0  0  0  0  0  0  0  0  0
   -6.4039   -1.3261    4.2580 H   0  0  0  0  0  0  0  0  0  0  0  0
   -2.9581   -0.8148    4.8381 H   0  0  0  0  0  0  0  0  0  0  0  0
  1  2  2  0
  2  3  1  0
  3  4  1  0
  4  5  1  0
  5  6  1  0
  6  7  1  0
  7  8  1  0
  8  9  1  0
  9 10  1  0
 10 11  2  0
 10 12  1  0
 12 13  1  0
 13 14  2  0
 13 15  1  0
  7 16  1  0
 16 17  1  0
 16 18  1  0
 18 19  1  0
 18 20  1  0
 20 21  1  0
  3 22  2  0
 22 23  1  0
 23 24  1  0
 24 25  2  0
 25 26  1  0
 26 27  1  0
 26 28  2  0
 28 29  1  0
 28 30  1  0
 22 31  1  0
 31 32  1  0
 32 33  2  0
 33 34  1  0
 34 35  1  0
 34 36  2  0
 36 37  1  0
 37 38  1  0
 37 39  2  0
 20  5  1  0
 30 23  2  0
 39  2  1  0
 39 32  1  0
  5 40  1  1
  7 41  1  1
  8 42  1  0
  8 43  1  0
 12 44  1  0
 12 45  1  0
 15 46  1  0
 16 47  1  1
 17 48  1  0
 18 49  1  1
 19 50  1  0
 20 51  1  1
 21 52  1  0
 24 53  1  0
 25 54  1  0
 27 55  1  0
 29 56  1  0
 30 57  1  0
 33 58  1  0
 35 59  1  0
 36 60  1  0
 38 61  1  0
M  END
>  <clase>  (1) 
Flavonol

>  <carga>  (1) 
0

>  <InChIKey>  (1) 
NBQPHANHNTWDML-YYYZAYPPSA-N

>  <fuente>  (1) 
Ruiz 2024

$$$$
