Quercetín-3-malonilglucósido
     RDKit          3D

 61 64  0  0  0  0  0  0  0  0999 V2000
   -0.3336    1.0966   -1.8710 O   0  0  0  0  0  0  0  0  0  0  0  0
   -1.0334    0.7092   -0.9412 C   0  0  0  0  0  0  0  0  0  0  0  0
   -1.3586   -0.7393   -0.8077 C   0  0  0  0  0  0  0  0  0  0  0  0
   -0.8734   -1.6170   -1.7611 O   0  0  0  0  0  0  0  0  0  0  0  0
    0.5243   -1.9413   -1.5867 C   0  0  2  0  0  0  0  0  0  0  0  0
    1.1418   -1.3389   -0.4482 O   0  0  0  0  0  0  0  0  0  0  0  0
    2.5133   -1.7165   -0.2698 C   0  0  2  0  0  0  0  0  0  0  0  0
    3.0404   -1.0320    1.0011 C   0  0  0  0  0  0  0  0  0  0  0  0
    3.0551    0.4000    0.8393 O   0  0  0  0  0  0  0  0  0  0  0  0
    2.0071    1.0909    1.3653 C   0  0  0  0  0  0  0  0  0  0  0  0
    1.0604    0.6051    1.9725 O   0  0  0  0  0  0  0  0  0  0  0  0
    2.1363    2.5490    1.0600 C   0  0  0  0  0  0  0  0  0  0  0  0
    3.3355    3.1765    1.6845 C   0  0  0  0  0  0  0  0  0  0  0  0
    4.0574    2.7149    2.5512 O   0  0  0  0  0  0  0  0  0  0  0  0
    3.5595    4.4222    1.2128 O   0  0  0  0  0  0  0  0  0  0  0  0
    3.3522   -1.3487   -1.5035 C   0  0  1  0  0  0  0  0  0  0  0  0
    4.6909   -1.8360   -1.3692 O   0  0  0  0  0  0  0  0  0  0  0  0
    2.7311   -1.9638   -2.7581 C   0  0  2  0  0  0  0  0  0  0  0  0
    3.4721   -1.5300   -3.9108 O   0  0  0  0  0  0  0  0  0  0  0  0
    1.2630   -1.5693   -2.8863 C   0  0  1  0  0  0  0  0  0  0  0  0
    0.7108   -2.2451   -4.0298 O   0  0  0  0  0  0  0  0  0  0  0  0
   -2.1414   -1.1340    0.2114 C   0  0  0  0  0  0  0  0  0  0  0  0
   -2.4952   -2.5480    0.4263 C   0  0  0  0  0  0  0  0  0  0  0  0
   -2.1128   -3.1806    1.6224 C   0  0  0  0  0  0  0  0  0  0  0  0
   -2.4327   -4.5204    1.8524 C   0  0  0  0  0  0  0  0  0  0  0  0
   -3.1377   -5.2213    0.8865 C   0  0  0  0  0  0  0  0  0  0  0  0
   -3.4498   -6.5314    1.1093 O   0  0  0  0  0  0  0  0  0  0  0  0
   -3.5279   -4.6055   -0.3000 C   0  0  0  0  0  0  0  0  0  0  0  0
   -4.2225   -5.3584   -1.2068 O   0  0  0  0  0  0  0  0  0  0  0  0
   -3.2142   -3.2717   -0.5386 C   0  0  0  0  0  0  0  0  0  0  0  0
   -2.6500   -0.2950    1.1827 O   0  0  0  0  0  0  0  0  0  0  0  0
   -2.3859    1.0478    1.0936 C   0  0  0  0  0  0  0  0  0  0  0  0
   -2.9538    1.8432    2.0934 C   0  0  0  0  0  0  0  0  0  0  0  0
   -2.7450    3.2156    2.0703 C   0  0  0  0  0  0  0  0  0  0  0  0
   -3.2755    4.0331    3.0231 O   0  0  0  0  0  0  0  0  0  0  0  0
   -1.9825    3.8034    1.0681 C   0  0  0  0  0  0  0  0  0  0  0  0
   -1.4120    3.0031    0.0749 C   0  0  0  0  0  0  0  0  0  0  0  0
   -0.6490    3.6039   -0.8861 O   0  0  0  0  0  0  0  0  0  0  0  0
   -1.6084    1.6146    0.0809 C   0  0  0  0  0  0  0  0  0  0  0  0
    0.5438   -3.0307   -1.4535 H   0  0  0  0  0  0  0  0  0  0  0  0
    2.5567   -2.8001   -0.0974 H   0  0  0  0  0  0  0  0  0  0  0  0
    2.4384   -1.3208    1.8705 H   0  0  0  0  0  0  0  0  0  0  0  0
    4.0707   -1.3421    1.2049 H   0  0  0  0  0  0  0  0  0  0  0  0
    1.2512    3.0632    1.4464 H   0  0  0  0  0  0  0  0  0  0  0  0
    2.1679    2.6698   -0.0277 H   0  0  0  0  0  0  0  0  0  0  0  0
    4.3570    4.7207    1.6998 H   0  0  0  0  0  0  0  0  0  0  0  0
    3.4104   -0.2607   -1.6303 H   0  0  0  0  0  0  0  0  0  0  0  0
    5.1006   -1.6923   -2.2472 H   0  0  0  0  0  0  0  0  0  0  0  0
    2.8357   -3.0561   -2.7389 H   0  0  0  0  0  0  0  0  0  0  0  0
    2.9181   -1.7809   -4.6779 H   0  0  0  0  0  0  0  0  0  0  0  0
    1.1885   -0.4970   -3.0951 H   0  0  0  0  0  0  0  0  0  0  0  0
   -0.2208   -1.9531   -4.0763 H   0  0  0  0  0  0  0  0  0  0  0  0
   -1.5550   -2.6310    2.3790 H   0  0  0  0  0  0  0  0  0  0  0  0
   -2.1343   -5.0099    2.7744 H   0  0  0  0  0  0  0  0  0  0  0  0
   -3.9398   -6.8068    0.3090 H   0  0  0  0  0  0  0  0  0  0  0  0
   -4.4279   -4.7976   -1.9746 H   0  0  0  0  0  0  0  0  0  0  0  0
   -3.5191   -2.7869   -1.4611 H   0  0  0  0  0  0  0  0  0  0  0  0
   -3.5484    1.3760    2.8724 H   0  0  0  0  0  0  0  0  0  0  0  0
   -3.7427    3.4915    3.6820 H   0  0  0  0  0  0  0  0  0  0  0  0
   -1.8354    4.8792    1.0821 H   0  0  0  0  0  0  0  0  0  0  0  0
   -0.7051    4.5698   -0.8023 H   0  0  0  0  0  0  0  0  0  0  0  0
  1  2  2  0
  2  3  1  0
  3  4  1  0
  4  5  1  0
  5  6  1  0
  6  7  1  0
  7  8  1  0
  8  9  1  0
  9 10  1  0
 10 11  2  0
 10 12  1  0
 12 13  1  0
 13 14  2  0
 13 15  1  0
  7 16  1  0
 16 17  1  0
 16 18  1  0
 18 19  1  0
 18 20  1  0
 20 21  1  0
  3 22  2  0
 22 23  1  0
 23 24  1  0
 24 25  2  0
 25 26  1  0
 26 27  1  0
 26 28  2  0
 28 29  1  0
 28 30  1  0
 22 31  1  0
 31 32  1  0
 32 33  2  0
 33 34  1  0
 34 35  1  0
 34 36  2  0
 36 37  1  0
 37 38  1  0
 37 39  2  0
 20  5  1  0
 30 23  2  0
 39  2  1  0
 39 32  1  0
  5 40  1  1
  7 41  1  1
  8 42  1  0
  8 43  1  0
 12 44  1  0
 12 45  1  0
 15 46  1  0
 16 47  1  6
 17 48  1  0
 18 49  1  1
 19 50  1  0
 20 51  1  6
 21 52  1  0
 24 53  1  0
 25 54  1  0
 27 55  1  0
 29 56  1  0
 30 57  1  0
 33 58  1  0
 35 59  1  0
 36 60  1  0
 38 61  1  0
M  END
>  <clase>  (1) 
Flavonol

>  <carga>  (1) 
0

>  <InChIKey>  (1) 
NBQPHANHNTWDML-UJKBSQBPSA-N

>  <parte_planta>  (1) 
fruto

$$$$
