Malvidín-3-rutinosido
     RDKit          3D

 80 84  0  0  0  0  0  0  0  0999 V2000
    2.0224   -2.2431   -3.9375 O   0  0  0  0  0  0  0  0  0  0  0  0
    1.0322   -2.4088   -2.9749 C   0  0  0  0  0  0  0  0  0  0  0  0
    1.1820   -3.3941   -2.0730 C   0  0  0  0  0  0  0  0  0  0  0  0
    0.2051   -3.5897   -1.0363 C   0  0  0  0  0  0  0  0  0  0  0  0
   -0.4744   -4.7732   -1.1965 O   0  0  0  0  0  0  0  0  0  0  0  0
   -0.1433   -2.6232   -0.1586 C   0  0  0  0  0  0  0  0  0  0  0  0
    0.5908   -1.3647    0.0011 C   0  0  0  0  0  0  0  0  0  0  0  0
    0.6498   -0.3428   -0.8773 C   0  0  0  0  0  0  0  0  0  0  0  0
    0.2173   -0.2694   -2.1739 O   0  0  0  0  0  0  0  0  0  0  0  0
   -0.1354   -1.4024   -2.9682 C   0  0  2  0  0  0  0  0  0  0  0  0
   -1.4174   -1.9982   -2.7299 O   0  0  0  0  0  0  0  0  0  0  0  0
   -2.3941   -1.2965   -1.9442 C   0  0  2  0  0  0  0  0  0  0  0  0
   -3.1737   -2.3828   -1.1302 C   0  0  0  0  0  0  0  0  0  0  0  0
   -2.4593   -3.2364   -0.2154 O   0  0  0  0  0  0  0  0  0  0  0  0
   -1.4550   -2.6567    0.6193 C   0  0  2  0  0  0  0  0  0  0  0  0
   -1.7510   -1.3262    1.0255 O   0  0  0  0  0  0  0  0  0  0  0  0
   -2.7743   -1.1449    1.9997 C   0  0  1  0  0  0  0  0  0  0  0  0
   -2.2695   -1.4664    3.4007 C   0  0  0  0  0  0  0  0  0  0  0  0
   -3.1913    0.3381    1.8376 C   0  0  2  0  0  0  0  0  0  0  0  0
   -3.7481    0.5007    0.5255 O   0  0  0  0  0  0  0  0  0  0  0  0
   -2.0089    1.3226    2.0293 C   0  0  2  0  0  0  0  0  0  0  0  0
   -2.1977    1.9383    3.3241 O   0  0  0  0  0  0  0  0  0  0  0  0
   -1.8564    2.4250    0.9513 C   0  0  1  0  0  0  0  0  0  0  0  0
   -1.1382    3.5100    1.6338 O   0  0  0  0  0  0  0  0  0  0  0  0
   -3.3948   -0.4697   -2.8158 C   0  0  1  0  0  0  0  0  0  0  0  0
   -4.6195   -0.2437   -2.0975 O   0  0  0  0  0  0  0  0  0  0  0  0
   -2.9225    0.9164   -3.3419 C   0  0  2  0  0  0  0  0  0  0  0  0
   -1.8043    0.7933   -4.2207 O   0  0  0  0  0  0  0  0  0  0  0  0
   -2.6684    2.0663   -2.3012 C   0  0  1  0  0  0  0  0  0  0  0  0
   -3.7364    2.2745   -1.4069 O   0  0  0  0  0  0  0  0  0  0  0  0
    1.1373    0.9688   -0.3104 C   0  0  0  0  0  0  0  0  0  0  0  0
    0.3950    2.0209   -0.0521 O   0  0  0  0  0  0  0  0  0  0  0  0
   -1.0275    2.0054   -0.2735 C   0  0  0  0  0  0  0  0  0  0  0  0
   -1.3680    1.9851   -1.5713 C   0  0  0  0  0  0  0  0  0  0  0  0
    2.6143    1.0471   -0.0548 C   0  0  0  0  0  0  0  0  0  0  0  0
    3.5401    0.1635   -0.6363 C   0  0  0  0  0  0  0  0  0  0  0  0
    4.8965    0.3032   -0.3527 C   0  0  0  0  0  0  0  0  0  0  0  0
    5.9044   -0.4858   -0.8422 O   0  0  0  0  0  0  0  0  0  0  0  0
    5.5411   -1.5557   -1.7098 C   0  0  0  0  0  0  0  0  0  0  0  0
    5.3121    1.3334    0.5034 C   0  0  0  0  0  0  0  0  0  0  0  0
    6.6506    1.4637    0.7794 O   0  0  0  0  0  0  0  0  0  0  0  0
    4.4031    2.2311    1.0788 C   0  0  0  0  0  0  0  0  0  0  0  0
    4.9334    3.1944    1.8907 O   0  0  0  0  0  0  0  0  0  0  0  0
    4.0475    4.1221    2.5005 C   0  0  0  0  0  0  0  0  0  0  0  0
    3.0476    2.0833    0.7888 C   0  0  0  0  0  0  0  0  0  0  0  0
    1.6257   -1.8733   -4.7470 H   0  0  0  0  0  0  0  0  0  0  0  0
    2.0035   -4.1003   -2.1371 H   0  0  0  0  0  0  0  0  0  0  0  0
   -1.3683   -4.6744   -0.8135 H   0  0  0  0  0  0  0  0  0  0  0  0
    0.9471   -1.2246    1.0247 H   0  0  0  0  0  0  0  0  0  0  0  0
   -0.2034   -1.0290   -3.9944 H   0  0  0  0  0  0  0  0  0  0  0  0
   -1.9299   -0.6285   -1.2293 H   0  0  0  0  0  0  0  0  0  0  0  0
   -3.9832   -1.9312   -0.5522 H   0  0  0  0  0  0  0  0  0  0  0  0
   -3.6499   -3.0679   -1.8419 H   0  0  0  0  0  0  0  0  0  0  0  0
   -1.3151   -3.2998    1.4949 H   0  0  0  0  0  0  0  0  0  0  0  0
   -3.6304   -1.7847    1.7568 H   0  0  0  0  0  0  0  0  0  0  0  0
   -2.0893   -2.5409    3.5075 H   0  0  0  0  0  0  0  0  0  0  0  0
   -1.3163   -0.9724    3.6134 H   0  0  0  0  0  0  0  0  0  0  0  0
   -3.0004   -1.1722    4.1600 H   0  0  0  0  0  0  0  0  0  0  0  0
   -3.9902    0.5652    2.5544 H   0  0  0  0  0  0  0  0  0  0  0  0
   -4.6033    0.0227    0.5282 H   0  0  0  0  0  0  0  0  0  0  0  0
   -1.0538    0.7939    2.1201 H   0  0  0  0  0  0  0  0  0  0  0  0
   -1.6915    2.7795    3.2976 H   0  0  0  0  0  0  0  0  0  0  0  0
   -2.8240    2.8599    0.6952 H   0  0  0  0  0  0  0  0  0  0  0  0
   -1.0318    4.2402    0.9955 H   0  0  0  0  0  0  0  0  0  0  0  0
   -3.6331   -1.0905   -3.6900 H   0  0  0  0  0  0  0  0  0  0  0  0
   -5.3427   -0.1971   -2.7554 H   0  0  0  0  0  0  0  0  0  0  0  0
   -3.7568    1.2917   -3.9532 H   0  0  0  0  0  0  0  0  0  0  0  0
   -2.1423    0.4806   -5.0827 H   0  0  0  0  0  0  0  0  0  0  0  0
   -2.5944    2.9894   -2.8922 H   0  0  0  0  0  0  0  0  0  0  0  0
   -4.1219    1.4027   -1.1655 H   0  0  0  0  0  0  0  0  0  0  0  0
   -0.5371    1.9554   -2.2737 H   0  0  0  0  0  0  0  0  0  0  0  0
    3.2097   -0.6162   -1.3147 H   0  0  0  0  0  0  0  0  0  0  0  0
    5.0749   -1.1774   -2.6254 H   0  0  0  0  0  0  0  0  0  0  0  0
    6.4575   -2.0819   -1.9934 H   0  0  0  0  0  0  0  0  0  0  0  0
    4.8879   -2.2714   -1.1996 H   0  0  0  0  0  0  0  0  0  0  0  0
    7.1045    0.7566    0.2830 H   0  0  0  0  0  0  0  0  0  0  0  0
    3.3408    3.6137    3.1646 H   0  0  0  0  0  0  0  0  0  0  0  0
    3.5218    4.7179    1.7472 H   0  0  0  0  0  0  0  0  0  0  0  0
    4.6452    4.8066    3.1100 H   0  0  0  0  0  0  0  0  0  0  0  0
    2.3102    2.7621    1.2098 H   0  0  0  0  0  0  0  0  0  0  0  0
  1  2  1  0
  2  3  2  3
  3  4  1  0
  4  5  1  0
  4  6  2  3
  6  7  1  0
  7  8  2  3
  8  9  1  0
  9 10  1  0
 10 11  1  0
 11 12  1  0
 12 13  1  0
 13 14  1  0
 14 15  1  0
 15 16  1  0
 16 17  1  0
 17 18  1  0
 17 19  1  0
 19 20  1  0
 19 21  1  0
 21 22  1  0
 21 23  1  0
 23 24  1  0
 12 25  1  0
 25 26  1  0
 25 27  1  0
 27 28  1  0
 27 29  1  0
 29 30  1  0
  8 31  1  0
 31 32  2  3
 32 33  1  0
 33 34  2  3
 31 35  1  0
 35 36  1  0
 36 37  2  0
 37 38  1  0
 38 39  1  0
 37 40  1  0
 40 41  1  0
 40 42  2  0
 42 43  1  0
 43 44  1  0
 42 45  1  0
 10  2  1  0
 34 29  1  0
 45 35  2  0
 15  6  1  0
 33 23  1  0
  1 46  1  0
  3 47  1  0
  5 48  1  0
  7 49  1  0
 10 50  1  6
 12 51  1  1
 13 52  1  0
 13 53  1  0
 15 54  1  1
 17 55  1  6
 18 56  1  0
 18 57  1  0
 18 58  1  0
 19 59  1  1
 20 60  1  0
 21 61  1  1
 22 62  1  0
 23 63  1  6
 24 64  1  0
 25 65  1  6
 26 66  1  0
 27 67  1  6
 28 68  1  0
 29 69  1  6
 30 70  1  0
 34 71  1  0
 36 72  1  0
 39 73  1  0
 39 74  1  0
 39 75  1  0
 41 76  1  0
 44 77  1  0
 44 78  1  0
 44 79  1  0
 45 80  1  0
M  CHG  1  32   1
M  END
>  <clase>  (1) 
Antocianina

>  <carga>  (1) 
1

>  <InChIKey>  (1) 
NTQACCPYZUZLIJ-UYWOMXLRSA-O

$$$$
