Cafeoilglucárico (isómeros A–D)
     RDKit          3D

 42 42  0  0  0  0  0  0  0  0999 V2000
   -3.3952    0.5840    3.3460 O   0  0  0  0  0  0  0  0  0  0  0  0
   -2.9022    0.6223    4.5967 C   0  0  0  0  0  0  0  0  0  0  0  0
   -3.2824    1.4578    5.4046 O   0  0  0  0  0  0  0  0  0  0  0  0
   -1.8991   -0.4798    4.8969 C   0  0  2  0  0  0  0  0  0  0  0  0
   -1.9380   -0.7847    6.3122 O   0  0  0  0  0  0  0  0  0  0  0  0
   -0.4544   -0.0645    4.5814 C   0  0  1  0  0  0  0  0  0  0  0  0
    0.4393   -1.0839    5.0631 O   0  0  0  0  0  0  0  0  0  0  0  0
   -0.1249    0.2465    3.1107 C   0  0  2  0  0  0  0  0  0  0  0  0
   -0.7206    1.5124    2.7672 O   0  0  0  0  0  0  0  0  0  0  0  0
   -0.5343   -0.8139    2.0745 C   0  0  1  0  0  0  0  0  0  0  0  0
   -0.1557   -0.2739    0.7809 O   0  0  0  0  0  0  0  0  0  0  0  0
   -0.6238   -0.9824   -0.2770 C   0  0  0  0  0  0  0  0  0  0  0  0
   -1.3652   -1.9481   -0.2255 O   0  0  0  0  0  0  0  0  0  0  0  0
   -0.0840   -0.3776   -1.5095 C   0  0  0  0  0  0  0  0  0  0  0  0
   -0.4565   -0.8564   -2.7058 C   0  0  0  0  0  0  0  0  0  0  0  0
    0.0280   -0.3092   -3.9786 C   0  0  0  0  0  0  0  0  0  0  0  0
   -0.8887   -0.1245   -5.0266 C   0  0  0  0  0  0  0  0  0  0  0  0
   -0.4680    0.3755   -6.2616 C   0  0  0  0  0  0  0  0  0  0  0  0
    0.8718    0.6761   -6.4478 C   0  0  0  0  0  0  0  0  0  0  0  0
    1.2842    1.1630   -7.6545 O   0  0  0  0  0  0  0  0  0  0  0  0
    1.7945    0.4797   -5.4242 C   0  0  0  0  0  0  0  0  0  0  0  0
    3.1030    0.7836   -5.6836 O   0  0  0  0  0  0  0  0  0  0  0  0
    1.3843   -0.0144   -4.1895 C   0  0  0  0  0  0  0  0  0  0  0  0
    0.2065   -2.1238    2.3106 C   0  0  0  0  0  0  0  0  0  0  0  0
    1.2992   -2.4292    1.8572 O   0  0  0  0  0  0  0  0  0  0  0  0
   -0.4845   -2.9871    3.0824 O   0  0  0  0  0  0  0  0  0  0  0  0
   -4.0017    1.3534    3.2988 H   0  0  0  0  0  0  0  0  0  0  0  0
   -2.1941   -1.4026    4.3914 H   0  0  0  0  0  0  0  0  0  0  0  0
   -2.2043    0.0433    6.7637 H   0  0  0  0  0  0  0  0  0  0  0  0
   -0.2251    0.8304    5.1756 H   0  0  0  0  0  0  0  0  0  0  0  0
    0.0571   -1.3811    5.9162 H   0  0  0  0  0  0  0  0  0  0  0  0
    0.9603    0.3989    3.0330 H   0  0  0  0  0  0  0  0  0  0  0  0
   -0.4812    1.6817    1.8357 H   0  0  0  0  0  0  0  0  0  0  0  0
   -1.6179   -0.9715    2.0714 H   0  0  0  0  0  0  0  0  0  0  0  0
    0.6024    0.4521   -1.3975 H   0  0  0  0  0  0  0  0  0  0  0  0
   -1.1699   -1.6762   -2.7789 H   0  0  0  0  0  0  0  0  0  0  0  0
   -1.9417   -0.3612   -4.8877 H   0  0  0  0  0  0  0  0  0  0  0  0
   -1.1783    0.5254   -7.0689 H   0  0  0  0  0  0  0  0  0  0  0  0
    2.2486    1.2888   -7.5519 H   0  0  0  0  0  0  0  0  0  0  0  0
    3.6307    0.5570   -4.8985 H   0  0  0  0  0  0  0  0  0  0  0  0
    2.1085   -0.1839   -3.3990 H   0  0  0  0  0  0  0  0  0  0  0  0
    0.1074   -3.7656    3.1568 H   0  0  0  0  0  0  0  0  0  0  0  0
  1  2  1  0
  2  3  2  0
  2  4  1  0
  4  5  1  0
  4  6  1  0
  6  7  1  0
  6  8  1  0
  8  9  1  0
  8 10  1  0
 10 11  1  0
 11 12  1  0
 12 13  2  0
 12 14  1  0
 14 15  2  0
 15 16  1  0
 16 17  1  0
 17 18  2  0
 18 19  1  0
 19 20  1  0
 19 21  2  0
 21 22  1  0
 21 23  1  0
 10 24  1  0
 24 25  2  0
 24 26  1  0
 23 16  2  0
  1 27  1  0
  4 28  1  6
  5 29  1  0
  6 30  1  1
  7 31  1  0
  8 32  1  1
  9 33  1  0
 10 34  1  6
 14 35  1  0
 15 36  1  0
 17 37  1  0
 18 38  1  0
 20 39  1  0
 22 40  1  0
 23 41  1  0
 26 42  1  0
M  END
>  <clase>  (1) 
Ác. Hidroxicinámico

>  <carga>  (1) 
0

>  <InChIKey>  (1) 
OMIXKOJEIRRAJW-HLWOJZJGSA-N

$$$$
