Cafeoilglucárico (isómeros A–D)
     RDKit          3D

 42 42  0  0  0  0  0  0  0  0999 V2000
   -0.1048    2.3976    3.5888 O   0  0  0  0  0  0  0  0  0  0  0  0
    1.0740    3.0447    3.5655 C   0  0  0  0  0  0  0  0  0  0  0  0
    1.1324    4.2606    3.6818 O   0  0  0  0  0  0  0  0  0  0  0  0
    2.2786    2.1269    3.4341 C   0  0  2  0  0  0  0  0  0  0  0  0
    3.4225    2.7542    4.0614 O   0  0  0  0  0  0  0  0  0  0  0  0
    2.6685    1.8758    1.9698 C   0  0  1  0  0  0  0  0  0  0  0  0
    3.9166    1.1612    1.9321 O   0  0  0  0  0  0  0  0  0  0  0  0
    1.6428    1.1345    1.0939 C   0  0  2  0  0  0  0  0  0  0  0  0
    0.5599    2.0349    0.7908 O   0  0  0  0  0  0  0  0  0  0  0  0
    1.0747   -0.1777    1.6624 C   0  0  1  0  0  0  0  0  0  0  0  0
    0.1657   -0.6912    0.6592 O   0  0  0  0  0  0  0  0  0  0  0  0
   -0.5600   -1.7651    1.0486 C   0  0  0  0  0  0  0  0  0  0  0  0
   -0.5422   -2.2752    2.1575 O   0  0  0  0  0  0  0  0  0  0  0  0
   -1.4275   -2.2710   -0.0339 C   0  0  0  0  0  0  0  0  0  0  0  0
   -1.4397   -1.7862   -1.2855 C   0  0  0  0  0  0  0  0  0  0  0  0
   -2.2991   -2.3145   -2.3550 C   0  0  0  0  0  0  0  0  0  0  0  0
   -1.7838   -2.3759   -3.6611 C   0  0  0  0  0  0  0  0  0  0  0  0
   -2.5691   -2.8433   -4.7181 C   0  0  0  0  0  0  0  0  0  0  0  0
   -3.8731   -3.2381   -4.4677 C   0  0  0  0  0  0  0  0  0  0  0  0
   -4.6414   -3.6934   -5.4997 O   0  0  0  0  0  0  0  0  0  0  0  0
   -4.4027   -3.1692   -3.1825 C   0  0  0  0  0  0  0  0  0  0  0  0
   -5.7006   -3.5664   -3.0106 O   0  0  0  0  0  0  0  0  0  0  0  0
   -3.6278   -2.7053   -2.1231 C   0  0  0  0  0  0  0  0  0  0  0  0
    2.1922   -1.1617    1.9937 C   0  0  0  0  0  0  0  0  0  0  0  0
    2.6986   -1.3251    3.0931 O   0  0  0  0  0  0  0  0  0  0  0  0
    2.6237   -1.8687    0.9279 O   0  0  0  0  0  0  0  0  0  0  0  0
   -0.7723    3.1127    3.6600 H   0  0  0  0  0  0  0  0  0  0  0  0
    2.1096    1.2016    3.9908 H   0  0  0  0  0  0  0  0  0  0  0  0
    3.2906    3.7207    3.9711 H   0  0  0  0  0  0  0  0  0  0  0  0
    2.8735    2.8490    1.5040 H   0  0  0  0  0  0  0  0  0  0  0  0
    4.4391    1.5030    2.6890 H   0  0  0  0  0  0  0  0  0  0  0  0
    2.1204    0.9107    0.1304 H   0  0  0  0  0  0  0  0  0  0  0  0
   -0.0551    1.5376    0.2181 H   0  0  0  0  0  0  0  0  0  0  0  0
    0.4883    0.0176    2.5669 H   0  0  0  0  0  0  0  0  0  0  0  0
   -2.0533   -3.1045    0.2666 H   0  0  0  0  0  0  0  0  0  0  0  0
   -0.7732   -0.9788   -1.5799 H   0  0  0  0  0  0  0  0  0  0  0  0
   -0.7605   -2.0686   -3.8676 H   0  0  0  0  0  0  0  0  0  0  0  0
   -2.1666   -2.8974   -5.7251 H   0  0  0  0  0  0  0  0  0  0  0  0
   -5.5035   -3.9060   -5.0897 H   0  0  0  0  0  0  0  0  0  0  0  0
   -5.9303   -3.4670   -2.0707 H   0  0  0  0  0  0  0  0  0  0  0  0
   -4.0532   -2.6353   -1.1272 H   0  0  0  0  0  0  0  0  0  0  0  0
    3.3498   -2.4175    1.2943 H   0  0  0  0  0  0  0  0  0  0  0  0
  1  2  1  0
  2  3  2  0
  2  4  1  0
  4  5  1  0
  4  6  1  0
  6  7  1  0
  6  8  1  0
  8  9  1  0
  8 10  1  0
 10 11  1  0
 11 12  1  0
 12 13  2  0
 12 14  1  0
 14 15  2  0
 15 16  1  0
 16 17  1  0
 17 18  2  0
 18 19  1  0
 19 20  1  0
 19 21  2  0
 21 22  1  0
 21 23  1  0
 10 24  1  0
 24 25  2  0
 24 26  1  0
 23 16  2  0
  1 27  1  0
  4 28  1  1
  5 29  1  0
  6 30  1  6
  7 31  1  0
  8 32  1  6
  9 33  1  0
 10 34  1  1
 14 35  1  0
 15 36  1  0
 17 37  1  0
 18 38  1  0
 20 39  1  0
 22 40  1  0
 23 41  1  0
 26 42  1  0
M  END
>  <clase>  (1) 
Ác. Hidroxicinámico

>  <carga>  (1) 
0

>  <InChIKey>  (1) 
OMIXKOJEIRRAJW-HLWOJZJGSA-N

>  <parte_planta>  (1) 
fruto

$$$$
