Peonidín-3-rutinosido
     RDKit          3D

 76 80  0  0  0  0  0  0  0  0999 V2000
    2.6956    3.7298    4.8174 O   0  0  0  0  0  0  0  0  0  0  0  0
    2.9488    2.6336    4.0523 C   0  0  0  0  0  0  0  0  0  0  0  0
    4.2155    2.3712    3.5450 C   0  0  0  0  0  0  0  0  0  0  0  0
    4.4042    1.2286    2.7671 C   0  0  0  0  0  0  0  0  0  0  0  0
    5.6373    0.9531    2.2428 O   0  0  0  0  0  0  0  0  0  0  0  0
    3.3425    0.3448    2.4853 C   0  0  0  0  0  0  0  0  0  0  0  0
    3.4702   -0.7861    1.6742 C   0  0  0  0  0  0  0  0  0  0  0  0
    2.3471   -1.5290    1.3066 C   0  0  0  0  0  0  0  0  0  0  0  0
    2.5252   -2.5350    0.3849 O   0  0  0  0  0  0  0  0  0  0  0  0
    2.8450   -2.0175   -0.9352 C   0  0  2  0  0  0  0  0  0  0  0  0
    2.0599   -0.8540   -1.2063 O   0  0  0  0  0  0  0  0  0  0  0  0
    2.3009   -0.3073   -2.5091 C   0  0  2  0  0  0  0  0  0  0  0  0
    1.4131    0.9398   -2.6745 C   0  0  0  0  0  0  0  0  0  0  0  0
    0.0427    0.6503   -2.9480 O   0  0  0  0  0  0  0  0  0  0  0  0
   -0.7542    0.2673   -1.8251 C   0  0  2  0  0  0  0  0  0  0  0  0
   -1.9896   -0.2676   -2.3297 O   0  0  0  0  0  0  0  0  0  0  0  0
   -2.9231    0.7520   -2.6950 C   0  0  1  0  0  0  0  0  0  0  0  0
   -4.0789    0.0867   -3.4318 C   0  0  0  0  0  0  0  0  0  0  0  0
   -3.4228    1.5004   -1.4427 C   0  0  2  0  0  0  0  0  0  0  0  0
   -3.5863    2.9002   -1.7269 O   0  0  0  0  0  0  0  0  0  0  0  0
   -2.4146    1.3714   -0.2950 C   0  0  2  0  0  0  0  0  0  0  0  0
   -2.5808    2.4252    0.6708 O   0  0  0  0  0  0  0  0  0  0  0  0
   -0.9824    1.4261   -0.8246 C   0  0  1  0  0  0  0  0  0  0  0  0
   -0.0776    1.3611    0.3069 O   0  0  0  0  0  0  0  0  0  0  0  0
    2.0787   -1.3424   -3.6371 C   0  0  1  0  0  0  0  0  0  0  0  0
    3.3370   -1.5155   -4.3184 O   0  0  0  0  0  0  0  0  0  0  0  0
    1.6475   -2.7122   -3.0864 C   0  0  2  0  0  0  0  0  0  0  0  0
    0.3151   -2.6942   -2.5817 O   0  0  0  0  0  0  0  0  0  0  0  0
    2.6141   -3.1502   -1.9718 C   0  0  1  0  0  0  0  0  0  0  0  0
    3.8793   -3.5483   -2.5316 O   0  0  0  0  0  0  0  0  0  0  0  0
    1.0795   -1.2421    1.8561 C   0  0  0  0  0  0  0  0  0  0  0  0
    0.9945   -0.2539    2.8992 O   0  0  0  0  0  0  0  0  0  0  0  0
    2.0854    0.6384    3.0262 C   0  0  0  0  0  0  0  0  0  0  0  0
    1.8873    1.7741    3.8038 C   0  0  0  0  0  0  0  0  0  0  0  0
   -0.2266   -1.8914    1.5897 C   0  0  0  0  0  0  0  0  0  0  0  0
   -0.4221   -2.9794    0.7209 C   0  0  0  0  0  0  0  0  0  0  0  0
   -1.6922   -3.5235    0.5040 C   0  0  0  0  0  0  0  0  0  0  0  0
   -2.7879   -2.9926    1.1632 C   0  0  0  0  0  0  0  0  0  0  0  0
   -4.0143   -3.5448    0.9261 O   0  0  0  0  0  0  0  0  0  0  0  0
   -2.6506   -1.9216    2.0429 C   0  0  0  0  0  0  0  0  0  0  0  0
   -3.8164   -1.4892    2.6158 O   0  0  0  0  0  0  0  0  0  0  0  0
   -3.7378   -0.3557    3.4734 C   0  0  0  0  0  0  0  0  0  0  0  0
   -1.3767   -1.3857    2.2515 C   0  0  0  0  0  0  0  0  0  0  0  0
    3.5036    4.2569    4.9543 H   0  0  0  0  0  0  0  0  0  0  0  0
    5.0415    3.0477    3.7483 H   0  0  0  0  0  0  0  0  0  0  0  0
    6.2946    1.6117    2.5345 H   0  0  0  0  0  0  0  0  0  0  0  0
    4.4466   -1.0463    1.2643 H   0  0  0  0  0  0  0  0  0  0  0  0
    3.9062   -1.7355   -0.9295 H   0  0  0  0  0  0  0  0  0  0  0  0
    3.3411    0.0449   -2.5151 H   0  0  0  0  0  0  0  0  0  0  0  0
    1.4991    1.5989   -1.8048 H   0  0  0  0  0  0  0  0  0  0  0  0
    1.7768    1.5042   -3.5406 H   0  0  0  0  0  0  0  0  0  0  0  0
   -0.2754   -0.5644   -1.3096 H   0  0  0  0  0  0  0  0  0  0  0  0
   -2.4419    1.4482   -3.3942 H   0  0  0  0  0  0  0  0  0  0  0  0
   -4.8290    0.8204   -3.7416 H   0  0  0  0  0  0  0  0  0  0  0  0
   -3.7116   -0.4351   -4.3221 H   0  0  0  0  0  0  0  0  0  0  0  0
   -4.5619   -0.6696   -2.8033 H   0  0  0  0  0  0  0  0  0  0  0  0
   -4.3969    1.1348   -1.0981 H   0  0  0  0  0  0  0  0  0  0  0  0
   -4.2903    2.9815   -2.3985 H   0  0  0  0  0  0  0  0  0  0  0  0
   -2.5704    0.4292    0.2383 H   0  0  0  0  0  0  0  0  0  0  0  0
   -3.0014    3.1581    0.1677 H   0  0  0  0  0  0  0  0  0  0  0  0
   -0.7885    2.3950   -1.3004 H   0  0  0  0  0  0  0  0  0  0  0  0
   -0.5068    1.9636    0.9543 H   0  0  0  0  0  0  0  0  0  0  0  0
    1.3610   -0.9732   -4.3773 H   0  0  0  0  0  0  0  0  0  0  0  0
    3.1357   -1.8206   -5.2259 H   0  0  0  0  0  0  0  0  0  0  0  0
    1.6876   -3.4526   -3.8947 H   0  0  0  0  0  0  0  0  0  0  0  0
   -0.2850   -2.3647   -3.2782 H   0  0  0  0  0  0  0  0  0  0  0  0
    2.2164   -4.0382   -1.4674 H   0  0  0  0  0  0  0  0  0  0  0  0
    4.1273   -2.8887   -3.2139 H   0  0  0  0  0  0  0  0  0  0  0  0
    0.9055    1.9648    4.2235 H   0  0  0  0  0  0  0  0  0  0  0  0
    0.3937   -3.4420    0.1748 H   0  0  0  0  0  0  0  0  0  0  0  0
   -1.8232   -4.3574   -0.1819 H   0  0  0  0  0  0  0  0  0  0  0  0
   -4.6379   -3.0639    1.5047 H   0  0  0  0  0  0  0  0  0  0  0  0
   -3.1216   -0.5705    4.3524 H   0  0  0  0  0  0  0  0  0  0  0  0
   -4.7501   -0.1302    3.8222 H   0  0  0  0  0  0  0  0  0  0  0  0
   -3.3667    0.5220    2.9344 H   0  0  0  0  0  0  0  0  0  0  0  0
   -1.2521   -0.5474    2.9337 H   0  0  0  0  0  0  0  0  0  0  0  0
  1  2  1  0
  2  3  2  0
  3  4  1  0
  4  5  1  0
  4  6  2  0
  6  7  1  0
  7  8  2  0
  8  9  1  0
  9 10  1  0
 10 11  1  0
 11 12  1  0
 12 13  1  0
 13 14  1  0
 14 15  1  0
 15 16  1  0
 16 17  1  0
 17 18  1  0
 17 19  1  0
 19 20  1  0
 19 21  1  0
 21 22  1  0
 21 23  1  0
 23 24  1  0
 12 25  1  0
 25 26  1  0
 25 27  1  0
 27 28  1  0
 27 29  1  0
 29 30  1  0
  8 31  1  0
 31 32  2  0
 32 33  1  0
 33 34  2  0
 31 35  1  0
 35 36  1  0
 36 37  2  0
 37 38  1  0
 38 39  1  0
 38 40  2  0
 40 41  1  0
 41 42  1  0
 40 43  1  0
 29 10  1  0
 23 15  1  0
 43 35  2  0
 34  2  1  0
 33  6  1  0
  1 44  1  0
  3 45  1  0
  5 46  1  0
  7 47  1  0
 10 48  1  1
 12 49  1  1
 13 50  1  0
 13 51  1  0
 15 52  1  1
 17 53  1  6
 18 54  1  0
 18 55  1  0
 18 56  1  0
 19 57  1  1
 20 58  1  0
 21 59  1  1
 22 60  1  0
 23 61  1  6
 24 62  1  0
 25 63  1  6
 26 64  1  0
 27 65  1  6
 28 66  1  0
 29 67  1  1
 30 68  1  0
 34 69  1  0
 36 70  1  0
 37 71  1  0
 39 72  1  0
 42 73  1  0
 42 74  1  0
 42 75  1  0
 43 76  1  0
M  CHG  1  32   1
M  END
>  <clase>  (1) 
Antocianina

>  <carga>  (1) 
1

>  <InChIKey>  (1) 
ONQVTPMFYSRRLL-LVQFFINWSA-O

>  <parte_planta>  (1) 
fruto

$$$$
