Isorhamnetín-3-rutinosido
     RDKit          3D

 76 80  0  0  0  0  0  0  0  0999 V2000
   -0.6346   -0.1765    3.7215 O   0  0  0  0  0  0  0  0  0  0  0  0
   -0.8103   -0.4846    2.5606 C   0  0  0  0  0  0  0  0  0  0  0  0
   -0.0770   -1.1839    1.5039 C   0  0  0  0  0  0  0  0  0  0  0  0
   -1.0960   -1.1677    0.7041 O   0  0  0  0  0  0  0  0  0  0  0  0
   -1.8153   -0.1722    1.4607 C   0  0  2  0  0  0  0  0  0  0  0  0
   -1.8330    1.1492    0.8488 O   0  0  0  0  0  0  0  0  0  0  0  0
   -0.5939    1.8235    0.5243 C   0  0  2  0  0  0  0  0  0  0  0  0
   -0.9157    3.3233    0.3317 C   0  0  0  0  0  0  0  0  0  0  0  0
   -1.6289    3.6714   -0.8636 O   0  0  0  0  0  0  0  0  0  0  0  0
   -2.9804    3.2073   -0.9167 C   0  0  2  0  0  0  0  0  0  0  0  0
   -3.0328    1.9703   -1.6331 O   0  0  0  0  0  0  0  0  0  0  0  0
   -3.3007    2.1202   -3.0296 C   0  0  1  0  0  0  0  0  0  0  0  0
   -3.1588    0.7517   -3.6852 C   0  0  0  0  0  0  0  0  0  0  0  0
   -4.7039    2.7106   -3.2671 C   0  0  2  0  0  0  0  0  0  0  0  0
   -4.7087    3.3948   -4.5274 O   0  0  0  0  0  0  0  0  0  0  0  0
   -5.0974    3.6854   -2.1468 C   0  0  2  0  0  0  0  0  0  0  0  0
   -5.9775    4.6931   -2.6719 O   0  0  0  0  0  0  0  0  0  0  0  0
   -3.8472    4.3223   -1.5490 C   0  0  1  0  0  0  0  0  0  0  0  0
   -4.2333    5.3060   -0.5738 O   0  0  0  0  0  0  0  0  0  0  0  0
    0.1590    1.1614   -0.6818 C   0  0  1  0  0  0  0  0  0  0  0  0
    0.1386    1.9491   -1.8865 O   0  0  0  0  0  0  0  0  0  0  0  0
    1.6539    0.9196   -0.3340 C   0  0  2  0  0  0  0  0  0  0  0  0
    2.4639    1.9456   -0.9563 O   0  0  0  0  0  0  0  0  0  0  0  0
    2.1980   -0.4683   -0.7864 C   0  0  1  0  0  0  0  0  0  0  0  0
    3.6195   -0.4676   -0.5605 O   0  0  0  0  0  0  0  0  0  0  0  0
    1.2079   -1.5384    1.3090 C   0  0  0  0  0  0  0  0  0  0  0  0
    1.6309   -1.7014   -0.0889 C   0  0  0  0  0  0  0  0  0  0  0  0
    1.4236   -2.8482   -0.7712 C   0  0  0  0  0  0  0  0  0  0  0  0
    0.9788   -4.0950   -0.1778 C   0  0  0  0  0  0  0  0  0  0  0  0
    1.7780   -4.8749    0.5674 C   0  0  0  0  0  0  0  0  0  0  0  0
    1.2968   -6.0268    1.1558 O   0  0  0  0  0  0  0  0  0  0  0  0
    3.1860   -4.5844    0.7952 C   0  0  0  0  0  0  0  0  0  0  0  0
    3.9565   -4.9643   -0.2856 O   0  0  0  0  0  0  0  0  0  0  0  0
    5.3097   -4.5303   -0.3171 C   0  0  0  0  0  0  0  0  0  0  0  0
    3.6350   -3.9758    1.9081 C   0  0  0  0  0  0  0  0  0  0  0  0
    2.2380   -1.4109    2.2369 O   0  0  0  0  0  0  0  0  0  0  0  0
    2.2387   -2.3570    3.2439 C   0  0  0  0  0  0  0  0  0  0  0  0
    1.6940   -1.9912    4.4780 C   0  0  0  0  0  0  0  0  0  0  0  0
    1.6058   -2.9273    5.5019 C   0  0  0  0  0  0  0  0  0  0  0  0
    1.0335   -2.6107    6.6989 O   0  0  0  0  0  0  0  0  0  0  0  0
    2.0928   -4.2159    5.3355 C   0  0  0  0  0  0  0  0  0  0  0  0
    2.7115   -4.5548    4.1335 C   0  0  0  0  0  0  0  0  0  0  0  0
    3.2265   -5.8170    3.9715 O   0  0  0  0  0  0  0  0  0  0  0  0
    2.8230   -3.6247    3.0832 C   0  0  0  0  0  0  0  0  0  0  0  0
   -2.8327   -0.5050    1.6911 H   0  0  0  0  0  0  0  0  0  0  0  0
    0.0158    1.7631    1.4321 H   0  0  0  0  0  0  0  0  0  0  0  0
   -1.4783    3.7059    1.1920 H   0  0  0  0  0  0  0  0  0  0  0  0
    0.0286    3.8776    0.2929 H   0  0  0  0  0  0  0  0  0  0  0  0
   -3.3510    3.0224    0.0985 H   0  0  0  0  0  0  0  0  0  0  0  0
   -2.5328    2.7715   -3.4685 H   0  0  0  0  0  0  0  0  0  0  0  0
   -2.1534    0.3512   -3.5148 H   0  0  0  0  0  0  0  0  0  0  0  0
   -3.3356    0.8047   -4.7636 H   0  0  0  0  0  0  0  0  0  0  0  0
   -3.8596    0.0326   -3.2469 H   0  0  0  0  0  0  0  0  0  0  0  0
   -5.4663    1.9256   -3.3299 H   0  0  0  0  0  0  0  0  0  0  0  0
   -5.4291    4.0573   -4.4475 H   0  0  0  0  0  0  0  0  0  0  0  0
   -5.6490    3.1564   -1.3599 H   0  0  0  0  0  0  0  0  0  0  0  0
   -6.0052    5.3868   -1.9804 H   0  0  0  0  0  0  0  0  0  0  0  0
   -3.2946    4.8688   -2.3237 H   0  0  0  0  0  0  0  0  0  0  0  0
   -3.4043    5.7205   -0.2672 H   0  0  0  0  0  0  0  0  0  0  0  0
   -0.3273    0.2264   -0.9594 H   0  0  0  0  0  0  0  0  0  0  0  0
   -0.7760    2.2900   -1.9742 H   0  0  0  0  0  0  0  0  0  0  0  0
    1.8486    1.0262    0.7379 H   0  0  0  0  0  0  0  0  0  0  0  0
    1.9227    2.2535   -1.7189 H   0  0  0  0  0  0  0  0  0  0  0  0
    2.0707   -0.5509   -1.8731 H   0  0  0  0  0  0  0  0  0  0  0  0
    3.9043    0.4444   -0.7726 H   0  0  0  0  0  0  0  0  0  0  0  0
    1.6723   -2.9115   -1.8286 H   0  0  0  0  0  0  0  0  0  0  0  0
   -0.0482   -4.3936   -0.3618 H   0  0  0  0  0  0  0  0  0  0  0  0
    2.0137   -6.3592    1.7293 H   0  0  0  0  0  0  0  0  0  0  0  0
    5.7443   -4.8548   -1.2672 H   0  0  0  0  0  0  0  0  0  0  0  0
    5.8873   -4.9918    0.4902 H   0  0  0  0  0  0  0  0  0  0  0  0
    5.3748   -3.4380   -0.2736 H   0  0  0  0  0  0  0  0  0  0  0  0
    4.6855   -3.7431    2.0414 H   0  0  0  0  0  0  0  0  0  0  0  0
    1.3470   -0.9762    4.6303 H   0  0  0  0  0  0  0  0  0  0  0  0
    0.6571   -1.7155    6.6322 H   0  0  0  0  0  0  0  0  0  0  0  0
    2.0005   -4.9266    6.1499 H   0  0  0  0  0  0  0  0  0  0  0  0
    3.1366   -6.2969    4.8124 H   0  0  0  0  0  0  0  0  0  0  0  0
  1  2  2  0
  2  3  1  0
  3  4  1  0
  4  5  1  0
  5  6  1  0
  6  7  1  0
  7  8  1  0
  8  9  1  0
  9 10  1  0
 10 11  1  0
 11 12  1  0
 12 13  1  0
 12 14  1  0
 14 15  1  0
 14 16  1  0
 16 17  1  0
 16 18  1  0
 18 19  1  0
  7 20  1  0
 20 21  1  0
 20 22  1  0
 22 23  1  0
 22 24  1  0
 24 25  1  0
  3 26  2  3
 26 27  1  0
 27 28  2  3
 28 29  1  0
 29 30  2  3
 30 31  1  0
 30 32  1  0
 32 33  1  0
 33 34  1  0
 32 35  2  3
 26 36  1  0
 36 37  1  0
 37 38  2  0
 38 39  1  0
 39 40  1  0
 39 41  2  0
 41 42  1  0
 42 43  1  0
 42 44  2  0
  5  2  1  0
 27 24  1  0
 44 35  1  0
 18 10  1  0
 44 37  1  0
  5 45  1  1
  7 46  1  1
  8 47  1  0
  8 48  1  0
 10 49  1  1
 12 50  1  6
 13 51  1  0
 13 52  1  0
 13 53  1  0
 14 54  1  6
 15 55  1  0
 16 56  1  1
 17 57  1  0
 18 58  1  6
 19 59  1  0
 20 60  1  6
 21 61  1  0
 22 62  1  1
 23 63  1  0
 24 64  1  6
 25 65  1  0
 28 66  1  0
 29 67  1  0
 31 68  1  0
 34 69  1  0
 34 70  1  0
 34 71  1  0
 35 72  1  0
 38 73  1  0
 40 74  1  0
 41 75  1  0
 43 76  1  0
M  END
>  <clase>  (1) 
Flavonol

>  <carga>  (1) 
0

>  <InChIKey>  (1) 
OPTNFNUJWZCIGB-BIKOSTKOSA-N

$$$$
