Quercetín-3-glucósido
     RDKit          3D

 53 56  0  0  0  0  0  0  0  0999 V2000
    1.3014    1.9375   -0.8804 O   0  0  0  0  0  0  0  0  0  0  0  0
    0.3866    1.2391   -1.3134 C   0  0  0  0  0  0  0  0  0  0  0  0
   -0.1661    0.0812   -0.5536 C   0  0  0  0  0  0  0  0  0  0  0  0
    0.3126   -0.1926    0.7195 O   0  0  0  0  0  0  0  0  0  0  0  0
    1.7139   -0.4760    0.7511 C   0  0  2  0  0  0  0  0  0  0  0  0
    1.9775   -1.8324    1.1217 O   0  0  0  0  0  0  0  0  0  0  0  0
    1.8648   -2.1733    2.5103 C   0  0  2  0  0  0  0  0  0  0  0  0
    0.4201   -2.4858    2.9549 C   0  0  0  0  0  0  0  0  0  0  0  0
   -0.4587   -1.3823    3.1125 O   0  0  0  0  0  0  0  0  0  0  0  0
    2.6376   -1.2125    3.4290 C   0  0  1  0  0  0  0  0  0  0  0  0
    4.0471   -1.4631    3.2812 O   0  0  0  0  0  0  0  0  0  0  0  0
    2.3560    0.2634    3.1235 C   0  0  2  0  0  0  0  0  0  0  0  0
    1.0719    0.6413    3.6243 O   0  0  0  0  0  0  0  0  0  0  0  0
    2.4865    0.5460    1.6210 C   0  0  1  0  0  0  0  0  0  0  0  0
    3.8898    0.5068    1.2874 O   0  0  0  0  0  0  0  0  0  0  0  0
   -1.1516   -0.6304   -1.1366 C   0  0  0  0  0  0  0  0  0  0  0  0
   -1.7901   -1.7943   -0.4966 C   0  0  0  0  0  0  0  0  0  0  0  0
   -2.4866   -1.6649    0.7120 C   0  0  0  0  0  0  0  0  0  0  0  0
   -3.1110   -2.7701    1.2979 C   0  0  0  0  0  0  0  0  0  0  0  0
   -3.0476   -4.0105    0.6699 C   0  0  0  0  0  0  0  0  0  0  0  0
   -3.6468   -5.1012    1.2342 O   0  0  0  0  0  0  0  0  0  0  0  0
   -2.3680   -4.1490   -0.5394 C   0  0  0  0  0  0  0  0  0  0  0  0
   -2.3192   -5.3747   -1.1436 O   0  0  0  0  0  0  0  0  0  0  0  0
   -1.7430   -3.0481   -1.1260 C   0  0  0  0  0  0  0  0  0  0  0  0
   -1.6576   -0.3898   -2.4046 O   0  0  0  0  0  0  0  0  0  0  0  0
   -1.1892    0.6847   -3.1109 C   0  0  0  0  0  0  0  0  0  0  0  0
   -1.7576    0.9162   -4.3634 C   0  0  0  0  0  0  0  0  0  0  0  0
   -1.3195    1.9934   -5.1280 C   0  0  0  0  0  0  0  0  0  0  0  0
   -1.9016    2.1831   -6.3457 O   0  0  0  0  0  0  0  0  0  0  0  0
   -0.3216    2.8438   -4.6618 C   0  0  0  0  0  0  0  0  0  0  0  0
    0.2421    2.6056   -3.4101 C   0  0  0  0  0  0  0  0  0  0  0  0
    1.2198    3.4742   -3.0050 O   0  0  0  0  0  0  0  0  0  0  0  0
   -0.1909    1.5249   -2.6319 C   0  0  0  0  0  0  0  0  0  0  0  0
    2.1339   -0.4179   -0.2615 H   0  0  0  0  0  0  0  0  0  0  0  0
    2.3823   -3.1407    2.5676 H   0  0  0  0  0  0  0  0  0  0  0  0
   -0.0423   -3.1587    2.2261 H   0  0  0  0  0  0  0  0  0  0  0  0
    0.4456   -3.0083    3.9173 H   0  0  0  0  0  0  0  0  0  0  0  0
    0.0323   -0.6285    3.4977 H   0  0  0  0  0  0  0  0  0  0  0  0
    2.3923   -1.4352    4.4735 H   0  0  0  0  0  0  0  0  0  0  0  0
    4.3237   -1.0673    2.4275 H   0  0  0  0  0  0  0  0  0  0  0  0
    3.0985    0.8675    3.6611 H   0  0  0  0  0  0  0  0  0  0  0  0
    1.0164    1.6146    3.5672 H   0  0  0  0  0  0  0  0  0  0  0  0
    2.1268    1.5616    1.4269 H   0  0  0  0  0  0  0  0  0  0  0  0
    3.9744    0.8900    0.3931 H   0  0  0  0  0  0  0  0  0  0  0  0
   -2.5305   -0.7057    1.2242 H   0  0  0  0  0  0  0  0  0  0  0  0
   -3.6240   -2.6415    2.2457 H   0  0  0  0  0  0  0  0  0  0  0  0
   -4.0340   -4.8393    2.0834 H   0  0  0  0  0  0  0  0  0  0  0  0
   -1.8003   -5.3068   -1.9591 H   0  0  0  0  0  0  0  0  0  0  0  0
   -1.2154   -3.1564   -2.0689 H   0  0  0  0  0  0  0  0  0  0  0  0
   -2.5391    0.2633   -4.7432 H   0  0  0  0  0  0  0  0  0  0  0  0
   -1.5111    2.9687   -6.7650 H   0  0  0  0  0  0  0  0  0  0  0  0
    0.0266    3.6864   -5.2510 H   0  0  0  0  0  0  0  0  0  0  0  0
    1.5247    3.2003   -2.1120 H   0  0  0  0  0  0  0  0  0  0  0  0
  1  2  2  0
  2  3  1  0
  3  4  1  0
  4  5  1  0
  5  6  1  0
  6  7  1  0
  7  8  1  0
  8  9  1  0
  7 10  1  0
 10 11  1  0
 10 12  1  0
 12 13  1  0
 12 14  1  0
 14 15  1  0
  3 16  2  0
 16 17  1  0
 17 18  1  0
 18 19  2  0
 19 20  1  0
 20 21  1  0
 20 22  2  0
 22 23  1  0
 22 24  1  0
 16 25  1  0
 25 26  1  0
 26 27  2  0
 27 28  1  0
 28 29  1  0
 28 30  2  0
 30 31  1  0
 31 32  1  0
 31 33  2  0
 14  5  1  0
 24 17  2  0
 33  2  1  0
 33 26  1  0
  5 34  1  6
  7 35  1  6
  8 36  1  0
  8 37  1  0
  9 38  1  0
 10 39  1  1
 11 40  1  0
 12 41  1  1
 13 42  1  0
 14 43  1  1
 15 44  1  0
 18 45  1  0
 19 46  1  0
 21 47  1  0
 23 48  1  0
 24 49  1  0
 27 50  1  0
 29 51  1  0
 30 52  1  0
 32 53  1  0
M  END
>  <clase>  (1) 
Flavonol

>  <carga>  (1) 
0

>  <InChIKey>  (1) 
OVSQVDMCBVZWGM-QSOFNFLRSA-N

>  <parte_planta>  (1) 
fruto

$$$$
