Quercetín-3-galactosido
     RDKit          3D

 53 56  0  0  0  0  0  0  0  0999 V2000
    0.5449    2.3643    0.1433 O   0  0  0  0  0  0  0  0  0  0  0  0
    0.1936    1.6277   -0.7767 C   0  0  0  0  0  0  0  0  0  0  0  0
   -0.2396    0.2274   -0.5351 C   0  0  0  0  0  0  0  0  0  0  0  0
   -0.2664   -0.2560    0.7597 O   0  0  0  0  0  0  0  0  0  0  0  0
    1.0433   -0.3853    1.3434 C   0  0  2  0  0  0  0  0  0  0  0  0
    1.4414   -1.7609    1.3696 O   0  0  0  0  0  0  0  0  0  0  0  0
    1.1029   -2.5117    2.5467 C   0  0  2  0  0  0  0  0  0  0  0  0
   -0.3760   -2.9420    2.5699 C   0  0  0  0  0  0  0  0  0  0  0  0
   -1.2919   -1.8555    2.6427 O   0  0  0  0  0  0  0  0  0  0  0  0
    1.6594   -1.8629    3.8335 C   0  0  2  0  0  0  0  0  0  0  0  0
    0.7706   -1.9990    4.9446 O   0  0  0  0  0  0  0  0  0  0  0  0
    2.0421   -0.3945    3.6344 C   0  0  2  0  0  0  0  0  0  0  0  0
    2.0962    0.2622    4.9136 O   0  0  0  0  0  0  0  0  0  0  0  0
    1.0459    0.3081    2.7239 C   0  0  1  0  0  0  0  0  0  0  0  0
    1.4415    1.6926    2.6318 O   0  0  0  0  0  0  0  0  0  0  0  0
   -0.6741   -0.4865   -1.5887 C   0  0  0  0  0  0  0  0  0  0  0  0
   -1.1774   -1.8581   -1.4330 C   0  0  0  0  0  0  0  0  0  0  0  0
   -2.4357   -2.0940   -0.8514 C   0  0  0  0  0  0  0  0  0  0  0  0
   -2.9114   -3.3986   -0.6843 C   0  0  0  0  0  0  0  0  0  0  0  0
   -2.1247   -4.4628   -1.1052 C   0  0  0  0  0  0  0  0  0  0  0  0
   -2.5289   -5.7611   -0.9641 O   0  0  0  0  0  0  0  0  0  0  0  0
   -0.8809   -4.2321   -1.6883 C   0  0  0  0  0  0  0  0  0  0  0  0
   -0.1152   -5.2865   -2.0972 O   0  0  0  0  0  0  0  0  0  0  0  0
   -0.3995   -2.9414   -1.8583 C   0  0  0  0  0  0  0  0  0  0  0  0
   -0.6814   -0.0453   -2.8992 O   0  0  0  0  0  0  0  0  0  0  0  0
   -0.2509    1.2303   -3.1608 C   0  0  0  0  0  0  0  0  0  0  0  0
   -0.2688    1.6425   -4.4929 C   0  0  0  0  0  0  0  0  0  0  0  0
    0.1517    2.9287   -4.8187 C   0  0  0  0  0  0  0  0  0  0  0  0
    0.1183    3.2911   -6.1323 O   0  0  0  0  0  0  0  0  0  0  0  0
    0.5889    3.8112   -3.8351 C   0  0  0  0  0  0  0  0  0  0  0  0
    0.6041    3.3941   -2.5057 C   0  0  0  0  0  0  0  0  0  0  0  0
    1.0424    4.3065   -1.5847 O   0  0  0  0  0  0  0  0  0  0  0  0
    0.1862    2.1024   -2.1661 C   0  0  0  0  0  0  0  0  0  0  0  0
    1.7932    0.1092    0.7123 H   0  0  0  0  0  0  0  0  0  0  0  0
    1.6575   -3.4523    2.4289 H   0  0  0  0  0  0  0  0  0  0  0  0
   -0.6105   -3.5012    1.6580 H   0  0  0  0  0  0  0  0  0  0  0  0
   -0.5712   -3.6042    3.4192 H   0  0  0  0  0  0  0  0  0  0  0  0
   -1.3027   -1.4455    1.7578 H   0  0  0  0  0  0  0  0  0  0  0  0
    2.5699   -2.3981    4.1310 H   0  0  0  0  0  0  0  0  0  0  0  0
    1.0198   -1.2738    5.5572 H   0  0  0  0  0  0  0  0  0  0  0  0
    3.0468   -0.3220    3.1992 H   0  0  0  0  0  0  0  0  0  0  0  0
    2.1080    1.2187    4.6984 H   0  0  0  0  0  0  0  0  0  0  0  0
    0.0481    0.3188    3.1756 H   0  0  0  0  0  0  0  0  0  0  0  0
    0.9477    2.0870    1.8783 H   0  0  0  0  0  0  0  0  0  0  0  0
   -3.0529   -1.2602   -0.5215 H   0  0  0  0  0  0  0  0  0  0  0  0
   -3.8829   -3.5570   -0.2268 H   0  0  0  0  0  0  0  0  0  0  0  0
   -3.4024   -5.7627   -0.5353 H   0  0  0  0  0  0  0  0  0  0  0  0
   -0.6517   -6.0769   -1.8863 H   0  0  0  0  0  0  0  0  0  0  0  0
    0.5758   -2.7895   -2.3118 H   0  0  0  0  0  0  0  0  0  0  0  0
   -0.6081    0.9678   -5.2745 H   0  0  0  0  0  0  0  0  0  0  0  0
    0.4389    4.2052   -6.2170 H   0  0  0  0  0  0  0  0  0  0  0  0
    0.9173    4.8164   -4.0808 H   0  0  0  0  0  0  0  0  0  0  0  0
    0.9909    3.9014   -0.6914 H   0  0  0  0  0  0  0  0  0  0  0  0
  1  2  2  0
  2  3  1  0
  3  4  1  0
  4  5  1  0
  5  6  1  0
  6  7  1  0
  7  8  1  0
  8  9  1  0
  7 10  1  0
 10 11  1  0
 10 12  1  0
 12 13  1  0
 12 14  1  0
 14 15  1  0
  3 16  2  0
 16 17  1  0
 17 18  1  0
 18 19  2  0
 19 20  1  0
 20 21  1  0
 20 22  2  0
 22 23  1  0
 22 24  1  0
 16 25  1  0
 25 26  1  0
 26 27  2  0
 27 28  1  0
 28 29  1  0
 28 30  2  0
 30 31  1  0
 31 32  1  0
 31 33  2  0
 14  5  1  0
 24 17  2  0
 33  2  1  0
 33 26  1  0
  5 34  1  6
  7 35  1  6
  8 36  1  0
  8 37  1  0
  9 38  1  0
 10 39  1  1
 11 40  1  0
 12 41  1  6
 13 42  1  0
 14 43  1  1
 15 44  1  0
 18 45  1  0
 19 46  1  0
 21 47  1  0
 23 48  1  0
 24 49  1  0
 27 50  1  0
 29 51  1  0
 30 52  1  0
 32 53  1  0
M  END
>  <clase>  (1) 
Flavonol

>  <carga>  (1) 
0

>  <InChIKey>  (1) 
OVSQVDMCBVZWGM-DTGCRPNFSA-N

>  <fuente>  (1) 
Ruiz 2024

$$$$
