Quercetín-3-rhamnosido
     RDKit          3D

 52 55  0  0  0  0  0  0  0  0999 V2000
   -0.2532    1.2792    2.7435 O   0  0  0  0  0  0  0  0  0  0  0  0
   -0.2167    1.9290    1.7048 C   0  0  0  0  0  0  0  0  0  0  0  0
    0.4476    1.3465    0.5036 C   0  0  0  0  0  0  0  0  0  0  0  0
    1.0269    0.0958    0.6252 O   0  0  0  0  0  0  0  0  0  0  0  0
    0.0428   -0.9480    0.7297 C   0  0  1  0  0  0  0  0  0  0  0  0
    0.0984   -1.7511   -0.4543 O   0  0  0  0  0  0  0  0  0  0  0  0
   -0.9909   -2.6910   -0.5254 C   0  0  1  0  0  0  0  0  0  0  0  0
   -0.5886   -3.7272   -1.5686 C   0  0  0  0  0  0  0  0  0  0  0  0
   -1.2908   -3.3542    0.8368 C   0  0  2  0  0  0  0  0  0  0  0  0
   -2.3617   -2.6457    1.4867 O   0  0  0  0  0  0  0  0  0  0  0  0
   -0.0613   -3.2792    1.7392 C   0  0  2  0  0  0  0  0  0  0  0  0
   -0.3636   -3.8916    3.0047 O   0  0  0  0  0  0  0  0  0  0  0  0
    0.3710   -1.8222    1.9664 C   0  0  1  0  0  0  0  0  0  0  0  0
    1.7812   -1.8496    2.2761 O   0  0  0  0  0  0  0  0  0  0  0  0
    0.5092    2.0773   -0.6246 C   0  0  0  0  0  0  0  0  0  0  0  0
    1.1479    1.5939   -1.8698 C   0  0  0  0  0  0  0  0  0  0  0  0
    0.4745    1.7471   -3.0973 C   0  0  0  0  0  0  0  0  0  0  0  0
    1.0543    1.3190   -4.2947 C   0  0  0  0  0  0  0  0  0  0  0  0
    2.3105    0.7371   -4.2654 C   0  0  0  0  0  0  0  0  0  0  0  0
    2.8786    0.3156   -5.4328 O   0  0  0  0  0  0  0  0  0  0  0  0
    2.9925    0.5787   -3.0631 C   0  0  0  0  0  0  0  0  0  0  0  0
    4.2266   -0.0108   -3.1060 O   0  0  0  0  0  0  0  0  0  0  0  0
    2.4263    1.0105   -1.8672 C   0  0  0  0  0  0  0  0  0  0  0  0
   -0.0499    3.3361   -0.7634 O   0  0  0  0  0  0  0  0  0  0  0  0
   -0.6806    3.9059    0.3122 C   0  0  0  0  0  0  0  0  0  0  0  0
   -1.2103    5.1819    0.0975 C   0  0  0  0  0  0  0  0  0  0  0  0
   -1.8667    5.8284    1.1364 C   0  0  0  0  0  0  0  0  0  0  0  0
   -2.3997    7.0725    0.9780 O   0  0  0  0  0  0  0  0  0  0  0  0
   -2.0020    5.2224    2.3801 C   0  0  0  0  0  0  0  0  0  0  0  0
   -1.4706    3.9474    2.5890 C   0  0  0  0  0  0  0  0  0  0  0  0
   -1.6167    3.3706    3.8178 O   0  0  0  0  0  0  0  0  0  0  0  0
   -0.8033    3.2787    1.5534 C   0  0  0  0  0  0  0  0  0  0  0  0
   -0.9748   -0.5411    0.8139 H   0  0  0  0  0  0  0  0  0  0  0  0
   -1.8728   -2.1487   -0.8876 H   0  0  0  0  0  0  0  0  0  0  0  0
   -1.3847   -4.4606   -1.7286 H   0  0  0  0  0  0  0  0  0  0  0  0
   -0.3668   -3.2407   -2.5248 H   0  0  0  0  0  0  0  0  0  0  0  0
    0.3220   -4.2564   -1.2668 H   0  0  0  0  0  0  0  0  0  0  0  0
   -1.6456   -4.3838    0.7190 H   0  0  0  0  0  0  0  0  0  0  0  0
   -2.4133   -3.0355    2.3844 H   0  0  0  0  0  0  0  0  0  0  0  0
    0.7566   -3.8622    1.2983 H   0  0  0  0  0  0  0  0  0  0  0  0
    0.4391   -3.7638    3.5483 H   0  0  0  0  0  0  0  0  0  0  0  0
   -0.1103   -1.3959    2.8535 H   0  0  0  0  0  0  0  0  0  0  0  0
    2.0776   -0.9231    2.1804 H   0  0  0  0  0  0  0  0  0  0  0  0
   -0.5158    2.1968   -3.1299 H   0  0  0  0  0  0  0  0  0  0  0  0
    0.5289    1.4358   -5.2374 H   0  0  0  0  0  0  0  0  0  0  0  0
    3.7410   -0.0582   -5.1620 H   0  0  0  0  0  0  0  0  0  0  0  0
    4.5254   -0.1475   -2.1900 H   0  0  0  0  0  0  0  0  0  0  0  0
    2.9703    0.8968   -0.9345 H   0  0  0  0  0  0  0  0  0  0  0  0
   -1.1007    5.6491   -0.8767 H   0  0  0  0  0  0  0  0  0  0  0  0
   -2.2336    7.3804    0.0708 H   0  0  0  0  0  0  0  0  0  0  0  0
   -2.5218    5.7549    3.1713 H   0  0  0  0  0  0  0  0  0  0  0  0
   -2.1007    3.9646    4.4141 H   0  0  0  0  0  0  0  0  0  0  0  0
  1  2  2  0
  2  3  1  0
  3  4  1  0
  4  5  1  0
  5  6  1  0
  6  7  1  0
  7  8  1  0
  7  9  1  0
  9 10  1  0
  9 11  1  0
 11 12  1  0
 11 13  1  0
 13 14  1  0
  3 15  2  0
 15 16  1  0
 16 17  1  0
 17 18  2  0
 18 19  1  0
 19 20  1  0
 19 21  2  0
 21 22  1  0
 21 23  1  0
 15 24  1  0
 24 25  1  0
 25 26  2  0
 26 27  1  0
 27 28  1  0
 27 29  2  0
 29 30  1  0
 30 31  1  0
 30 32  2  0
 13  5  1  0
 23 16  2  0
 32  2  1  0
 32 25  1  0
  5 33  1  1
  7 34  1  6
  8 35  1  0
  8 36  1  0
  8 37  1  0
  9 38  1  6
 10 39  1  0
 11 40  1  6
 12 41  1  0
 13 42  1  1
 14 43  1  0
 17 44  1  0
 18 45  1  0
 20 46  1  0
 22 47  1  0
 23 48  1  0
 26 49  1  0
 28 50  1  0
 29 51  1  0
 31 52  1  0
M  END
>  <clase>  (1) 
Flavonol

>  <carga>  (1) 
0

>  <InChIKey>  (1) 
OXGUCUVFOIWWQJ-VHQAYEMVSA-N

>  <parte_planta>  (1) 
fruto

$$$$
