Catequina
     RDKit          3D

 35 37  0  0  0  0  0  0  0  0999 V2000
   -2.5985    0.0285    1.1757 O   0  0  0  0  0  0  0  0  0  0  0  0
   -1.2380    0.3246    0.8417 C   0  0  1  0  0  0  0  0  0  0  0  0
   -0.4848    0.5944    2.1421 C   0  0  0  0  0  0  0  0  0  0  0  0
    1.0040    0.5685    1.9551 C   0  0  0  0  0  0  0  0  0  0  0  0
    1.8823    1.0712    2.9257 C   0  0  0  0  0  0  0  0  0  0  0  0
    1.4563    1.5935    4.1149 O   0  0  0  0  0  0  0  0  0  0  0  0
    3.2611    1.0660    2.7231 C   0  0  0  0  0  0  0  0  0  0  0  0
    3.7792    0.5423    1.5473 C   0  0  0  0  0  0  0  0  0  0  0  0
    5.1326    0.5570    1.3820 O   0  0  0  0  0  0  0  0  0  0  0  0
    2.9366    0.0157    0.5769 C   0  0  0  0  0  0  0  0  0  0  0  0
    1.5555    0.0162    0.7899 C   0  0  0  0  0  0  0  0  0  0  0  0
    0.8119   -0.5245   -0.2251 O   0  0  0  0  0  0  0  0  0  0  0  0
   -0.5463   -0.8407    0.1115 C   0  0  2  0  0  0  0  0  0  0  0  0
   -1.2705   -1.1880   -1.1828 C   0  0  0  0  0  0  0  0  0  0  0  0
   -1.1651   -0.3588   -2.3167 C   0  0  0  0  0  0  0  0  0  0  0  0
   -1.8572   -0.6623   -3.4907 C   0  0  0  0  0  0  0  0  0  0  0  0
   -2.6555   -1.7942   -3.5320 C   0  0  0  0  0  0  0  0  0  0  0  0
   -3.3345   -2.0891   -4.6790 O   0  0  0  0  0  0  0  0  0  0  0  0
   -2.7700   -2.6263   -2.4223 C   0  0  0  0  0  0  0  0  0  0  0  0
   -3.5753   -3.7260   -2.5343 O   0  0  0  0  0  0  0  0  0  0  0  0
   -2.0861   -2.3326   -1.2470 C   0  0  0  0  0  0  0  0  0  0  0  0
   -3.0987    0.0043    0.3384 H   0  0  0  0  0  0  0  0  0  0  0  0
   -1.2231    1.2333    0.2256 H   0  0  0  0  0  0  0  0  0  0  0  0
   -0.8092    1.5684    2.5289 H   0  0  0  0  0  0  0  0  0  0  0  0
   -0.7600   -0.1532    2.8976 H   0  0  0  0  0  0  0  0  0  0  0  0
    0.5077    1.4304    4.2299 H   0  0  0  0  0  0  0  0  0  0  0  0
    3.9268    1.4681    3.4812 H   0  0  0  0  0  0  0  0  0  0  0  0
    5.3462    0.1699    0.5171 H   0  0  0  0  0  0  0  0  0  0  0  0
    3.3317   -0.4027   -0.3435 H   0  0  0  0  0  0  0  0  0  0  0  0
   -0.5374   -1.7368    0.7481 H   0  0  0  0  0  0  0  0  0  0  0  0
   -0.5336    0.5280   -2.2923 H   0  0  0  0  0  0  0  0  0  0  0  0
   -1.7712   -0.0236   -4.3646 H   0  0  0  0  0  0  0  0  0  0  0  0
   -3.8107   -2.9187   -4.4759 H   0  0  0  0  0  0  0  0  0  0  0  0
   -3.5279   -4.2262   -1.7015 H   0  0  0  0  0  0  0  0  0  0  0  0
   -2.1816   -2.9782   -0.3784 H   0  0  0  0  0  0  0  0  0  0  0  0
  1  2  1  0
  2  3  1  0
  3  4  1  0
  4  5  2  0
  5  6  1  0
  5  7  1  0
  7  8  2  0
  8  9  1  0
  8 10  1  0
 10 11  2  0
 11 12  1  0
 12 13  1  0
 13 14  1  0
 14 15  1  0
 15 16  2  0
 16 17  1  0
 17 18  1  0
 17 19  2  0
 19 20  1  0
 19 21  1  0
 13  2  1  0
 21 14  2  0
 11  4  1  0
  1 22  1  0
  2 23  1  6
  3 24  1  0
  3 25  1  0
  6 26  1  0
  7 27  1  0
  9 28  1  0
 10 29  1  0
 13 30  1  1
 15 31  1  0
 16 32  1  0
 18 33  1  0
 20 34  1  0
 21 35  1  0
M  END
>  <clase>  (1) 
Flavan-3-ol

>  <carga>  (1) 
0

>  <InChIKey>  (1) 
PFTAWBLQPZVEMU-DZGCQCFKSA-N

>  <parte_planta>  (1) 
hojas|tallo

$$$$
