Epicatequina
     RDKit          3D

 35 37  0  0  0  0  0  0  0  0999 V2000
   -1.8606   -2.9052    0.5630 O   0  0  0  0  0  0  0  0  0  0  0  0
   -0.5547   -2.3431    0.7179 C   0  0  2  0  0  0  0  0  0  0  0  0
   -0.5594   -1.2551    1.7834 C   0  0  0  0  0  0  0  0  0  0  0  0
    0.7745   -0.5733    1.8493 C   0  0  0  0  0  0  0  0  0  0  0  0
    1.1840    0.1542    2.9760 C   0  0  0  0  0  0  0  0  0  0  0  0
    0.3992    0.3186    4.0830 O   0  0  0  0  0  0  0  0  0  0  0  0
    2.4378    0.7601    3.0275 C   0  0  0  0  0  0  0  0  0  0  0  0
    3.2914    0.6626    1.9387 C   0  0  0  0  0  0  0  0  0  0  0  0
    4.5088    1.2706    2.0235 O   0  0  0  0  0  0  0  0  0  0  0  0
    2.9037   -0.0268    0.7972 C   0  0  0  0  0  0  0  0  0  0  0  0
    1.6456   -0.6351    0.7503 C   0  0  0  0  0  0  0  0  0  0  0  0
    1.3579   -1.2581   -0.4360 O   0  0  0  0  0  0  0  0  0  0  0  0
    0.0441   -1.8151   -0.6015 C   0  0  2  0  0  0  0  0  0  0  0  0
   -0.8767   -0.8859   -1.3933 C   0  0  0  0  0  0  0  0  0  0  0  0
   -0.8164    0.5152   -1.2799 C   0  0  0  0  0  0  0  0  0  0  0  0
   -1.6945    1.3327   -1.9973 C   0  0  0  0  0  0  0  0  0  0  0  0
   -2.6339    0.7526   -2.8335 C   0  0  0  0  0  0  0  0  0  0  0  0
   -3.4922    1.5531   -3.5301 O   0  0  0  0  0  0  0  0  0  0  0  0
   -2.7067   -0.6291   -2.9676 C   0  0  0  0  0  0  0  0  0  0  0  0
   -3.6553   -1.1375   -3.8109 O   0  0  0  0  0  0  0  0  0  0  0  0
   -1.8383   -1.4509   -2.2565 C   0  0  0  0  0  0  0  0  0  0  0  0
   -2.4757   -2.1789    0.3519 H   0  0  0  0  0  0  0  0  0  0  0  0
    0.0932   -3.1562    1.0726 H   0  0  0  0  0  0  0  0  0  0  0  0
   -1.3436   -0.5145    1.5857 H   0  0  0  0  0  0  0  0  0  0  0  0
   -0.8064   -1.7245    2.7435 H   0  0  0  0  0  0  0  0  0  0  0  0
   -0.5051    0.0232    3.8992 H   0  0  0  0  0  0  0  0  0  0  0  0
    2.7435    1.3105    3.9126 H   0  0  0  0  0  0  0  0  0  0  0  0
    4.9944    1.1160    1.1965 H   0  0  0  0  0  0  0  0  0  0  0  0
    3.5588   -0.0960   -0.0657 H   0  0  0  0  0  0  0  0  0  0  0  0
    0.2008   -2.6904   -1.2468 H   0  0  0  0  0  0  0  0  0  0  0  0
   -0.0823    0.9954   -0.6373 H   0  0  0  0  0  0  0  0  0  0  0  0
   -1.6407    2.4136   -1.9056 H   0  0  0  0  0  0  0  0  0  0  0  0
   -4.0410    0.9324   -4.0495 H   0  0  0  0  0  0  0  0  0  0  0  0
   -3.5571   -2.1050   -3.8352 H   0  0  0  0  0  0  0  0  0  0  0  0
   -1.9002   -2.5318   -2.3585 H   0  0  0  0  0  0  0  0  0  0  0  0
  1  2  1  0
  2  3  1  0
  3  4  1  0
  4  5  2  0
  5  6  1  0
  5  7  1  0
  7  8  2  0
  8  9  1  0
  8 10  1  0
 10 11  2  0
 11 12  1  0
 12 13  1  0
 13 14  1  0
 14 15  1  0
 15 16  2  0
 16 17  1  0
 17 18  1  0
 17 19  2  0
 19 20  1  0
 19 21  1  0
 13  2  1  0
 21 14  2  0
 11  4  1  0
  1 22  1  0
  2 23  1  1
  3 24  1  0
  3 25  1  0
  6 26  1  0
  7 27  1  0
  9 28  1  0
 10 29  1  0
 13 30  1  6
 15 31  1  0
 16 32  1  0
 18 33  1  0
 20 34  1  0
 21 35  1  0
M  END
>  <clase>  (1) 
Flavan-3-ol

>  <carga>  (1) 
0

>  <InChIKey>  (1) 
PFTAWBLQPZVEMU-UKRRQHHQSA-N

>  <fuente>  (1) 
Molecules 2019

$$$$
