Catequina
     RDKit          3D

 35 37  0  0  0  0  0  0  0  0999 V2000
    0.2025    1.9340   -1.4347 O   0  0  0  0  0  0  0  0  0  0  0  0
    0.3629    0.7335   -0.6709 C   0  0  1  0  0  0  0  0  0  0  0  0
    1.3735    1.0161    0.4384 C   0  0  0  0  0  0  0  0  0  0  0  0
    1.3626   -0.0413    1.5033 C   0  0  0  0  0  0  0  0  0  0  0  0
    2.3893   -0.1495    2.4522 C   0  0  0  0  0  0  0  0  0  0  0  0
    3.4536    0.7074    2.4971 O   0  0  0  0  0  0  0  0  0  0  0  0
    2.3784   -1.1565    3.4156 C   0  0  0  0  0  0  0  0  0  0  0  0
    1.3280   -2.0625    3.4481 C   0  0  0  0  0  0  0  0  0  0  0  0
    1.3527   -3.0375    4.4011 O   0  0  0  0  0  0  0  0  0  0  0  0
    0.2843   -1.9671    2.5368 C   0  0  0  0  0  0  0  0  0  0  0  0
    0.2963   -0.9492    1.5795 C   0  0  0  0  0  0  0  0  0  0  0  0
   -0.7775   -0.9398    0.7296 O   0  0  0  0  0  0  0  0  0  0  0  0
   -0.9538    0.2691   -0.0222 C   0  0  2  0  0  0  0  0  0  0  0  0
   -2.0251    0.0012   -1.0701 C   0  0  0  0  0  0  0  0  0  0  0  0
   -3.1052    0.8920   -1.2209 C   0  0  0  0  0  0  0  0  0  0  0  0
   -4.0858    0.6751   -2.1949 C   0  0  0  0  0  0  0  0  0  0  0  0
   -3.9836   -0.4344   -3.0236 C   0  0  0  0  0  0  0  0  0  0  0  0
   -4.9081   -0.6996   -3.9954 O   0  0  0  0  0  0  0  0  0  0  0  0
   -2.9185   -1.3192   -2.8848 C   0  0  0  0  0  0  0  0  0  0  0  0
   -2.8225   -2.4050   -3.7071 O   0  0  0  0  0  0  0  0  0  0  0  0
   -1.9428   -1.1147   -1.9192 C   0  0  0  0  0  0  0  0  0  0  0  0
   -0.3517    1.7080   -2.2050 H   0  0  0  0  0  0  0  0  0  0  0  0
    0.7673   -0.0446   -1.3315 H   0  0  0  0  0  0  0  0  0  0  0  0
    1.1602    1.9882    0.9020 H   0  0  0  0  0  0  0  0  0  0  0  0
    2.3680    1.0953   -0.0179 H   0  0  0  0  0  0  0  0  0  0  0  0
    3.3120    1.4456    1.8851 H   0  0  0  0  0  0  0  0  0  0  0  0
    3.1866   -1.2320    4.1370 H   0  0  0  0  0  0  0  0  0  0  0  0
    0.5700   -3.6019    4.2895 H   0  0  0  0  0  0  0  0  0  0  0  0
   -0.5460   -2.6660    2.5572 H   0  0  0  0  0  0  0  0  0  0  0  0
   -1.3313    1.0422    0.6622 H   0  0  0  0  0  0  0  0  0  0  0  0
   -3.1884    1.7657   -0.5761 H   0  0  0  0  0  0  0  0  0  0  0  0
   -4.9087    1.3767   -2.2873 H   0  0  0  0  0  0  0  0  0  0  0  0
   -5.5980   -0.0152   -3.9525 H   0  0  0  0  0  0  0  0  0  0  0  0
   -3.6118   -2.3479   -4.2817 H   0  0  0  0  0  0  0  0  0  0  0  0
   -1.1277   -1.8283   -1.8269 H   0  0  0  0  0  0  0  0  0  0  0  0
  1  2  1  0
  2  3  1  0
  3  4  1  0
  4  5  2  0
  5  6  1  0
  5  7  1  0
  7  8  2  0
  8  9  1  0
  8 10  1  0
 10 11  2  0
 11 12  1  0
 12 13  1  0
 13 14  1  0
 14 15  1  0
 15 16  2  0
 16 17  1  0
 17 18  1  0
 17 19  2  0
 19 20  1  0
 19 21  1  0
 13  2  1  0
 21 14  2  0
 11  4  1  0
  1 22  1  0
  2 23  1  6
  3 24  1  0
  3 25  1  0
  6 26  1  0
  7 27  1  0
  9 28  1  0
 10 29  1  0
 13 30  1  1
 15 31  1  0
 16 32  1  0
 18 33  1  0
 20 34  1  0
 21 35  1  0
M  END
>  <clase>  (1) 
Flavan-3-ol

>  <carga>  (1) 
0

>  <InChIKey>  (1) 
PFTAWBLQPZVEMU-DZGCQCFKSA-N

$$$$
