Epicatequina
     RDKit          3D

 35 37  0  0  0  0  0  0  0  0999 V2000
    1.2572    0.3299   -1.3051 O   0  0  0  0  0  0  0  0  0  0  0  0
    0.0197    0.9634   -0.9439 C   0  0  2  0  0  0  0  0  0  0  0  0
    0.3035    1.9711    0.1725 C   0  0  0  0  0  0  0  0  0  0  0  0
    0.3797    1.3176    1.5288 C   0  0  0  0  0  0  0  0  0  0  0  0
    0.8256    2.0088    2.6646 C   0  0  0  0  0  0  0  0  0  0  0  0
    1.2139    3.3193    2.6373 O   0  0  0  0  0  0  0  0  0  0  0  0
    0.8978    1.3859    3.9109 C   0  0  0  0  0  0  0  0  0  0  0  0
    0.5241    0.0538    4.0300 C   0  0  0  0  0  0  0  0  0  0  0  0
    0.5870   -0.5984    5.2258 O   0  0  0  0  0  0  0  0  0  0  0  0
    0.0689   -0.6540    2.9267 C   0  0  0  0  0  0  0  0  0  0  0  0
   -0.0214   -0.0180    1.6881 C   0  0  0  0  0  0  0  0  0  0  0  0
   -0.4832   -0.7952    0.6572 O   0  0  0  0  0  0  0  0  0  0  0  0
   -1.0301   -0.0487   -0.4470 C   0  0  2  0  0  0  0  0  0  0  0  0
   -1.5553   -1.0609   -1.4562 C   0  0  0  0  0  0  0  0  0  0  0  0
   -2.5282   -1.9920   -1.0282 C   0  0  0  0  0  0  0  0  0  0  0  0
   -3.0698   -2.9395   -1.9033 C   0  0  0  0  0  0  0  0  0  0  0  0
   -2.6428   -2.9582   -3.2223 C   0  0  0  0  0  0  0  0  0  0  0  0
   -3.1316   -3.8564   -4.1297 O   0  0  0  0  0  0  0  0  0  0  0  0
   -1.6884   -2.0463   -3.6611 C   0  0  0  0  0  0  0  0  0  0  0  0
   -1.2758   -2.0694   -4.9635 O   0  0  0  0  0  0  0  0  0  0  0  0
   -1.1421   -1.1044   -2.7961 C   0  0  0  0  0  0  0  0  0  0  0  0
    1.3891   -0.4118   -0.6826 H   0  0  0  0  0  0  0  0  0  0  0  0
   -0.3314    1.5059   -1.8286 H   0  0  0  0  0  0  0  0  0  0  0  0
    1.2480    2.4851   -0.0410 H   0  0  0  0  0  0  0  0  0  0  0  0
   -0.5037    2.7131    0.2035 H   0  0  0  0  0  0  0  0  0  0  0  0
    1.2045    3.6517    1.7267 H   0  0  0  0  0  0  0  0  0  0  0  0
    1.2500    1.9524    4.7669 H   0  0  0  0  0  0  0  0  0  0  0  0
    0.9396    0.0130    5.8938 H   0  0  0  0  0  0  0  0  0  0  0  0
   -0.2232   -1.6949    3.0317 H   0  0  0  0  0  0  0  0  0  0  0  0
   -1.9131    0.5055   -0.0931 H   0  0  0  0  0  0  0  0  0  0  0  0
   -2.8632   -1.9829    0.0087 H   0  0  0  0  0  0  0  0  0  0  0  0
   -3.8110   -3.6413   -1.5357 H   0  0  0  0  0  0  0  0  0  0  0  0
   -3.7639   -4.4347   -3.6695 H   0  0  0  0  0  0  0  0  0  0  0  0
   -1.7764   -2.8075   -5.3645 H   0  0  0  0  0  0  0  0  0  0  0  0
   -0.3921   -0.4242   -3.1899 H   0  0  0  0  0  0  0  0  0  0  0  0
  1  2  1  0
  2  3  1  0
  3  4  1  0
  4  5  2  0
  5  6  1  0
  5  7  1  0
  7  8  2  0
  8  9  1  0
  8 10  1  0
 10 11  2  0
 11 12  1  0
 12 13  1  0
 13 14  1  0
 14 15  1  0
 15 16  2  0
 16 17  1  0
 17 18  1  0
 17 19  2  0
 19 20  1  0
 19 21  1  0
 13  2  1  0
 21 14  2  0
 11  4  1  0
  1 22  1  0
  2 23  1  6
  3 24  1  0
  3 25  1  0
  6 26  1  0
  7 27  1  0
  9 28  1  0
 10 29  1  0
 13 30  1  1
 15 31  1  0
 16 32  1  0
 18 33  1  0
 20 34  1  0
 21 35  1  0
M  END
>  <clase>  (1) 
Flavan-3-ol

>  <carga>  (1) 
0

>  <InChIKey>  (1) 
PFTAWBLQPZVEMU-UKRRQHHQSA-N

$$$$
