Delfinidin-3-rutinosido
     RDKit          3D

 74 78  0  0  0  0  0  0  0  0999 V2000
   -0.3365    1.9932    6.2062 O   0  0  0  0  0  0  0  0  0  0  0  0
    0.0947    1.1553    5.2259 C   0  0  0  0  0  0  0  0  0  0  0  0
    1.2886    1.4734    4.5902 C   0  0  0  0  0  0  0  0  0  0  0  0
    1.7824    0.6435    3.5856 C   0  0  0  0  0  0  0  0  0  0  0  0
    2.9539    1.0317    3.0004 O   0  0  0  0  0  0  0  0  0  0  0  0
    1.0810   -0.5036    3.1768 C   0  0  0  0  0  0  0  0  0  0  0  0
    1.4981   -1.3463    2.1406 C   0  0  0  0  0  0  0  0  0  0  0  0
    0.7452   -2.4609    1.7778 C   0  0  0  0  0  0  0  0  0  0  0  0
    1.1936   -3.2640    0.7613 O   0  0  0  0  0  0  0  0  0  0  0  0
    1.2267   -2.6717   -0.5652 C   0  0  2  0  0  0  0  0  0  0  0  0
    2.3703   -1.8235   -0.7044 O   0  0  0  0  0  0  0  0  0  0  0  0
    2.3769   -0.9646   -1.8645 C   0  0  2  0  0  0  0  0  0  0  0  0
    2.1978    0.4907   -1.4043 C   0  0  0  0  0  0  0  0  0  0  0  0
    2.2230    1.3649   -2.5257 O   0  0  0  0  0  0  0  0  0  0  0  0
    2.1169    2.7408   -2.1322 C   0  0  2  0  0  0  0  0  0  0  0  0
    0.8224    3.0002   -1.5679 O   0  0  0  0  0  0  0  0  0  0  0  0
   -0.1705    3.2373   -2.5668 C   0  0  1  0  0  0  0  0  0  0  0  0
   -1.5324    3.2534   -1.8837 C   0  0  0  0  0  0  0  0  0  0  0  0
    0.1006    4.5661   -3.2999 C   0  0  2  0  0  0  0  0  0  0  0  0
   -0.3288    4.4571   -4.6683 O   0  0  0  0  0  0  0  0  0  0  0  0
    1.5982    4.9092   -3.2870 C   0  0  2  0  0  0  0  0  0  0  0  0
    1.9343    5.7545   -4.3980 O   0  0  0  0  0  0  0  0  0  0  0  0
    2.4389    3.6368   -3.3509 C   0  0  1  0  0  0  0  0  0  0  0  0
    3.8338    3.9810   -3.3733 O   0  0  0  0  0  0  0  0  0  0  0  0
    1.3876   -1.3781   -2.9768 C   0  0  1  0  0  0  0  0  0  0  0  0
    1.8327   -2.6289   -3.5311 O   0  0  0  0  0  0  0  0  0  0  0  0
   -0.0415   -1.6090   -2.4550 C   0  0  2  0  0  0  0  0  0  0  0  0
   -0.8761   -0.4627   -2.6618 O   0  0  0  0  0  0  0  0  0  0  0  0
   -0.0718   -1.9361   -0.9556 C   0  0  1  0  0  0  0  0  0  0  0  0
   -1.2444   -2.6877   -0.6173 O   0  0  0  0  0  0  0  0  0  0  0  0
   -0.4205   -2.8051    2.4903 C   0  0  0  0  0  0  0  0  0  0  0  0
   -0.9145   -1.9159    3.5000 O   0  0  0  0  0  0  0  0  0  0  0  0
   -0.1239   -0.7914    3.8407 C   0  0  0  0  0  0  0  0  0  0  0  0
   -0.6158    0.0249    4.8603 C   0  0  0  0  0  0  0  0  0  0  0  0
   -1.2598   -4.0066    2.3152 C   0  0  0  0  0  0  0  0  0  0  0  0
   -2.6188   -3.9352    2.6938 C   0  0  0  0  0  0  0  0  0  0  0  0
   -3.4573   -5.0342    2.5583 C   0  0  0  0  0  0  0  0  0  0  0  0
   -4.7637   -4.9202    2.9293 O   0  0  0  0  0  0  0  0  0  0  0  0
   -2.9725   -6.2282    2.0551 C   0  0  0  0  0  0  0  0  0  0  0  0
   -3.8223   -7.2909    1.9350 O   0  0  0  0  0  0  0  0  0  0  0  0
   -1.6392   -6.3340    1.6863 C   0  0  0  0  0  0  0  0  0  0  0  0
   -1.2146   -7.5394    1.2038 O   0  0  0  0  0  0  0  0  0  0  0  0
   -0.7807   -5.2407    1.8173 C   0  0  0  0  0  0  0  0  0  0  0  0
   -1.1818    1.7010    6.5904 H   0  0  0  0  0  0  0  0  0  0  0  0
    1.8369    2.3694    4.8799 H   0  0  0  0  0  0  0  0  0  0  0  0
    3.5718    0.2819    2.9353 H   0  0  0  0  0  0  0  0  0  0  0  0
    2.4253   -1.1359    1.6098 H   0  0  0  0  0  0  0  0  0  0  0  0
    1.3638   -3.5375   -1.2228 H   0  0  0  0  0  0  0  0  0  0  0  0
    3.3888   -1.0497   -2.2811 H   0  0  0  0  0  0  0  0  0  0  0  0
    1.2600    0.6112   -0.8538 H   0  0  0  0  0  0  0  0  0  0  0  0
    3.0088    0.7449   -0.7100 H   0  0  0  0  0  0  0  0  0  0  0  0
    2.8566    2.9318   -1.3448 H   0  0  0  0  0  0  0  0  0  0  0  0
   -0.1711    2.3997   -3.2772 H   0  0  0  0  0  0  0  0  0  0  0  0
   -1.5778    4.0350   -1.1173 H   0  0  0  0  0  0  0  0  0  0  0  0
   -2.3387    3.4184   -2.6045 H   0  0  0  0  0  0  0  0  0  0  0  0
   -1.7113    2.3020   -1.3708 H   0  0  0  0  0  0  0  0  0  0  0  0
   -0.4499    5.4051   -2.8585 H   0  0  0  0  0  0  0  0  0  0  0  0
   -1.3029    4.5076   -4.6735 H   0  0  0  0  0  0  0  0  0  0  0  0
    1.8549    5.4646   -2.3769 H   0  0  0  0  0  0  0  0  0  0  0  0
    1.2854    5.5297   -5.0989 H   0  0  0  0  0  0  0  0  0  0  0  0
    2.2505    3.1015   -4.2897 H   0  0  0  0  0  0  0  0  0  0  0  0
    3.8979    4.7499   -3.9775 H   0  0  0  0  0  0  0  0  0  0  0  0
    1.3850   -0.6536   -3.7982 H   0  0  0  0  0  0  0  0  0  0  0  0
    2.6588   -2.4587   -4.0230 H   0  0  0  0  0  0  0  0  0  0  0  0
   -0.5155   -2.4289   -3.0097 H   0  0  0  0  0  0  0  0  0  0  0  0
   -0.9438   -0.3265   -3.6266 H   0  0  0  0  0  0  0  0  0  0  0  0
   -0.1587   -1.0057   -0.3837 H   0  0  0  0  0  0  0  0  0  0  0  0
   -1.9857   -2.2818   -1.1125 H   0  0  0  0  0  0  0  0  0  0  0  0
   -1.5519   -0.2461    5.3350 H   0  0  0  0  0  0  0  0  0  0  0  0
   -3.0376   -3.0141    3.0976 H   0  0  0  0  0  0  0  0  0  0  0  0
   -5.1572   -5.8005    2.7518 H   0  0  0  0  0  0  0  0  0  0  0  0
   -3.2729   -8.0154    1.5700 H   0  0  0  0  0  0  0  0  0  0  0  0
   -0.2788   -7.4824    0.9439 H   0  0  0  0  0  0  0  0  0  0  0  0
    0.2625   -5.3635    1.5396 H   0  0  0  0  0  0  0  0  0  0  0  0
  1  2  1  0
  2  3  2  0
  3  4  1  0
  4  5  1  0
  4  6  2  0
  6  7  1  0
  7  8  2  0
  8  9  1  0
  9 10  1  0
 10 11  1  0
 11 12  1  0
 12 13  1  0
 13 14  1  0
 14 15  1  0
 15 16  1  0
 16 17  1  0
 17 18  1  0
 17 19  1  0
 19 20  1  0
 19 21  1  0
 21 22  1  0
 21 23  1  0
 23 24  1  0
 12 25  1  0
 25 26  1  0
 25 27  1  0
 27 28  1  0
 27 29  1  0
 29 30  1  0
  8 31  1  0
 31 32  2  0
 32 33  1  0
 33 34  2  0
 31 35  1  0
 35 36  1  0
 36 37  2  0
 37 38  1  0
 37 39  1  0
 39 40  1  0
 39 41  2  0
 41 42  1  0
 41 43  1  0
 29 10  1  0
 23 15  1  0
 43 35  2  0
 34  2  1  0
 33  6  1  0
  1 44  1  0
  3 45  1  0
  5 46  1  0
  7 47  1  0
 10 48  1  6
 12 49  1  6
 13 50  1  0
 13 51  1  0
 15 52  1  1
 17 53  1  6
 18 54  1  0
 18 55  1  0
 18 56  1  0
 19 57  1  1
 20 58  1  0
 21 59  1  1
 22 60  1  0
 23 61  1  6
 24 62  1  0
 25 63  1  6
 26 64  1  0
 27 65  1  6
 28 66  1  0
 29 67  1  1
 30 68  1  0
 34 69  1  0
 36 70  1  0
 38 71  1  0
 40 72  1  0
 42 73  1  0
 43 74  1  0
M  CHG  1  32   1
M  END
>  <clase>  (1) 
Antocianina

>  <carga>  (1) 
1

>  <InChIKey>  (1) 
PLKUTZNSKRWCCA-QXVQRCPNSA-O

>  <fuente>  (1) 
Ruiz 2024

$$$$
