Malvidín-3-glucósido
     RDKit          3D

 60 63  0  0  0  0  0  0  0  0999 V2000
   -6.0414    3.1820    1.9749 O   0  0  0  0  0  0  0  0  0  0  0  0
   -4.7713    2.6954    1.9976 C   0  0  0  0  0  0  0  0  0  0  0  0
   -4.0153    2.9459    3.1379 C   0  0  0  0  0  0  0  0  0  0  0  0
   -2.7088    2.4683    3.2123 C   0  0  0  0  0  0  0  0  0  0  0  0
   -1.9545    2.7094    4.3264 O   0  0  0  0  0  0  0  0  0  0  0  0
   -2.1351    1.7386    2.1552 C   0  0  0  0  0  0  0  0  0  0  0  0
   -0.8174    1.2591    2.1730 C   0  0  0  0  0  0  0  0  0  0  0  0
   -0.2780    0.6111    1.0657 C   0  0  0  0  0  0  0  0  0  0  0  0
    1.0250    0.1884    1.0405 O   0  0  0  0  0  0  0  0  0  0  0  0
    1.5722   -0.4503    2.2118 C   0  0  2  0  0  0  0  0  0  0  0  0
    2.9748   -0.6547    1.9736 O   0  0  0  0  0  0  0  0  0  0  0  0
    3.3469   -1.9415    1.4444 C   0  0  2  0  0  0  0  0  0  0  0  0
    4.6707   -1.7795    0.6838 C   0  0  0  0  0  0  0  0  0  0  0  0
    4.4396   -1.2276   -0.6117 O   0  0  0  0  0  0  0  0  0  0  0  0
    2.2326   -2.5363    0.5751 C   0  0  1  0  0  0  0  0  0  0  0  0
    2.5947   -3.7600   -0.0652 O   0  0  0  0  0  0  0  0  0  0  0  0
    0.9935   -2.7992    1.4453 C   0  0  2  0  0  0  0  0  0  0  0  0
   -0.1749   -2.7733    0.6003 O   0  0  0  0  0  0  0  0  0  0  0  0
    0.8318   -1.7648    2.5685 C   0  0  1  0  0  0  0  0  0  0  0  0
    1.3384   -2.2794    3.8065 O   0  0  0  0  0  0  0  0  0  0  0  0
   -1.0578    0.4375   -0.0970 C   0  0  0  0  0  0  0  0  0  0  0  0
   -2.4623    0.7235   -0.0624 O   0  0  0  0  0  0  0  0  0  0  0  0
   -2.9309    1.5014    1.0251 C   0  0  0  0  0  0  0  0  0  0  0  0
   -4.2412    1.9734    0.9404 C   0  0  0  0  0  0  0  0  0  0  0  0
   -0.6072   -0.1057   -1.3890 C   0  0  0  0  0  0  0  0  0  0  0  0
    0.6625    0.1672   -1.9288 C   0  0  0  0  0  0  0  0  0  0  0  0
    1.0748   -0.3499   -3.1655 C   0  0  0  0  0  0  0  0  0  0  0  0
    2.3418    0.0365   -3.5016 O   0  0  0  0  0  0  0  0  0  0  0  0
    2.9073   -0.4751   -4.7012 C   0  0  0  0  0  0  0  0  0  0  0  0
    0.1879   -1.1526   -3.8816 C   0  0  0  0  0  0  0  0  0  0  0  0
    0.5229   -1.6913   -5.0961 O   0  0  0  0  0  0  0  0  0  0  0  0
   -1.0942   -1.4325   -3.3806 C   0  0  0  0  0  0  0  0  0  0  0  0
   -1.8633   -2.2298   -4.1909 O   0  0  0  0  0  0  0  0  0  0  0  0
   -3.1695   -2.5630   -3.7343 C   0  0  0  0  0  0  0  0  0  0  0  0
   -1.4851   -0.9040   -2.1490 C   0  0  0  0  0  0  0  0  0  0  0  0
   -6.4990    2.9701    1.1419 H   0  0  0  0  0  0  0  0  0  0  0  0
   -4.4597    3.5130    3.9541 H   0  0  0  0  0  0  0  0  0  0  0  0
   -2.4629    3.2301    4.9774 H   0  0  0  0  0  0  0  0  0  0  0  0
   -0.2049    1.4621    3.0514 H   0  0  0  0  0  0  0  0  0  0  0  0
    1.5420    0.2415    3.0594 H   0  0  0  0  0  0  0  0  0  0  0  0
    3.5524   -2.5962    2.3006 H   0  0  0  0  0  0  0  0  0  0  0  0
    5.3476   -1.1110    1.2261 H   0  0  0  0  0  0  0  0  0  0  0  0
    5.1585   -2.7497    0.5472 H   0  0  0  0  0  0  0  0  0  0  0  0
    5.3022   -0.9240   -0.9489 H   0  0  0  0  0  0  0  0  0  0  0  0
    1.9594   -1.8420   -0.2266 H   0  0  0  0  0  0  0  0  0  0  0  0
    3.2329   -3.5217   -0.7677 H   0  0  0  0  0  0  0  0  0  0  0  0
    1.0376   -3.8095    1.8704 H   0  0  0  0  0  0  0  0  0  0  0  0
   -0.0085   -3.4735   -0.0669 H   0  0  0  0  0  0  0  0  0  0  0  0
   -0.2323   -1.5625    2.7312 H   0  0  0  0  0  0  0  0  0  0  0  0
    0.8475   -3.0925    4.0261 H   0  0  0  0  0  0  0  0  0  0  0  0
   -4.8150    1.7535    0.0477 H   0  0  0  0  0  0  0  0  0  0  0  0
    1.3743    0.7987   -1.3950 H   0  0  0  0  0  0  0  0  0  0  0  0
    3.9296   -0.0902   -4.7724 H   0  0  0  0  0  0  0  0  0  0  0  0
    2.3641   -0.1143   -5.5801 H   0  0  0  0  0  0  0  0  0  0  0  0
    2.9741   -1.5673   -4.6763 H   0  0  0  0  0  0  0  0  0  0  0  0
   -0.2605   -2.1936   -5.3962 H   0  0  0  0  0  0  0  0  0  0  0  0
   -3.6345   -3.2034   -4.4899 H   0  0  0  0  0  0  0  0  0  0  0  0
   -3.1265   -3.1280   -2.7974 H   0  0  0  0  0  0  0  0  0  0  0  0
   -3.7892   -1.6666   -3.6284 H   0  0  0  0  0  0  0  0  0  0  0  0
   -2.4764   -1.1067   -1.7501 H   0  0  0  0  0  0  0  0  0  0  0  0
  1  2  1  0
  2  3  2  0
  3  4  1  0
  4  5  1  0
  4  6  2  0
  6  7  1  0
  7  8  2  0
  8  9  1  0
  9 10  1  0
 10 11  1  0
 11 12  1  0
 12 13  1  0
 13 14  1  0
 12 15  1  0
 15 16  1  0
 15 17  1  0
 17 18  1  0
 17 19  1  0
 19 20  1  0
  8 21  1  0
 21 22  2  0
 22 23  1  0
 23 24  2  0
 21 25  1  0
 25 26  1  0
 26 27  2  0
 27 28  1  0
 28 29  1  0
 27 30  1  0
 30 31  1  0
 30 32  2  0
 32 33  1  0
 33 34  1  0
 32 35  1  0
 19 10  1  0
 35 25  2  0
 24  2  1  0
 23  6  1  0
  1 36  1  0
  3 37  1  0
  5 38  1  0
  7 39  1  0
 10 40  1  1
 12 41  1  1
 13 42  1  0
 13 43  1  0
 14 44  1  0
 15 45  1  6
 16 46  1  0
 17 47  1  1
 18 48  1  0
 19 49  1  1
 20 50  1  0
 24 51  1  0
 26 52  1  0
 29 53  1  0
 29 54  1  0
 29 55  1  0
 31 56  1  0
 34 57  1  0
 34 58  1  0
 34 59  1  0
 35 60  1  0
M  CHG  1  22   1
M  END
>  <clase>  (1) 
Antocianina

>  <carga>  (1) 
1

>  <InChIKey>  (1) 
PXUQTDZNOHRWLI-OXUVVOBNSA-O

>  <fuente>  (1) 
Ruiz 2024

$$$$
