Ácido Cafeico
     RDKit          3D

 21 21  0  0  0  0  0  0  0  0999 V2000
   -3.6642    0.6986   -1.9543 O   0  0  0  0  0  0  0  0  0  0  0  0
   -3.6046   -0.2328   -0.9907 C   0  0  0  0  0  0  0  0  0  0  0  0
   -4.5831   -0.8825   -0.6690 O   0  0  0  0  0  0  0  0  0  0  0  0
   -2.2752   -0.3830   -0.3839 C   0  0  0  0  0  0  0  0  0  0  0  0
   -1.2083    0.3483   -0.7418 C   0  0  0  0  0  0  0  0  0  0  0  0
    0.1253    0.1925   -0.1438 C   0  0  0  0  0  0  0  0  0  0  0  0
    0.3038   -0.0384    1.2311 C   0  0  0  0  0  0  0  0  0  0  0  0
    1.5863   -0.1551    1.7745 C   0  0  0  0  0  0  0  0  0  0  0  0
    2.6874   -0.0303    0.9429 C   0  0  0  0  0  0  0  0  0  0  0  0
    3.9400   -0.1437    1.4731 O   0  0  0  0  0  0  0  0  0  0  0  0
    2.5268    0.2132   -0.4178 C   0  0  0  0  0  0  0  0  0  0  0  0
    3.6575    0.3306   -1.1791 O   0  0  0  0  0  0  0  0  0  0  0  0
    1.2536    0.3319   -0.9674 C   0  0  0  0  0  0  0  0  0  0  0  0
   -4.6000    0.6727   -2.2432 H   0  0  0  0  0  0  0  0  0  0  0  0
   -2.2215   -1.1508    0.3798 H   0  0  0  0  0  0  0  0  0  0  0  0
   -1.2890    1.0952   -1.5288 H   0  0  0  0  0  0  0  0  0  0  0  0
   -0.5509   -0.1184    1.8988 H   0  0  0  0  0  0  0  0  0  0  0  0
    1.7226   -0.3356    2.8364 H   0  0  0  0  0  0  0  0  0  0  0  0
    4.5407   -0.0193    0.7115 H   0  0  0  0  0  0  0  0  0  0  0  0
    3.3889    0.4921   -2.0999 H   0  0  0  0  0  0  0  0  0  0  0  0
    1.1284    0.5229   -2.0290 H   0  0  0  0  0  0  0  0  0  0  0  0
  1  2  1  0
  2  3  2  0
  2  4  1  0
  4  5  2  0
  5  6  1  0
  6  7  1  0
  7  8  2  0
  8  9  1  0
  9 10  1  0
  9 11  2  0
 11 12  1  0
 11 13  1  0
 13  6  2  0
  1 14  1  0
  4 15  1  0
  5 16  1  0
  7 17  1  0
  8 18  1  0
 10 19  1  0
 12 20  1  0
 13 21  1  0
M  END
>  <clase>  (1) 
Ác. Hidroxicinámico

>  <carga>  (1) 
0

>  <InChIKey>  (1) 
QAIPRVGONGVQAS-DUXPYHPUSA-N

>  <fuente>  (1) 
Molecules 2019

$$$$
