Ácido Cafeico
     RDKit          3D

 21 21  0  0  0  0  0  0  0  0999 V2000
    2.2572    0.4883   -1.5587 O   0  0  0  0  0  0  0  0  0  0  0  0
    2.0761    1.2654   -0.4803 C   0  0  0  0  0  0  0  0  0  0  0  0
    2.9262    2.0561   -0.1128 O   0  0  0  0  0  0  0  0  0  0  0  0
    0.7845    1.0672    0.1909 C   0  0  0  0  0  0  0  0  0  0  0  0
   -0.1474    0.1992   -0.2326 C   0  0  0  0  0  0  0  0  0  0  0  0
   -1.4359   -0.0086    0.4435 C   0  0  0  0  0  0  0  0  0  0  0  0
   -2.1719    1.0568    0.9899 C   0  0  0  0  0  0  0  0  0  0  0  0
   -3.4075    0.8303    1.6028 C   0  0  0  0  0  0  0  0  0  0  0  0
   -3.9087   -0.4601    1.6584 C   0  0  0  0  0  0  0  0  0  0  0  0
   -5.1155   -0.6818    2.2564 O   0  0  0  0  0  0  0  0  0  0  0  0
   -3.1985   -1.5230    1.1086 C   0  0  0  0  0  0  0  0  0  0  0  0
   -3.7551   -2.7699    1.1945 O   0  0  0  0  0  0  0  0  0  0  0  0
   -1.9679   -1.3068    0.4955 C   0  0  0  0  0  0  0  0  0  0  0  0
    3.1464    0.7438   -1.8810 H   0  0  0  0  0  0  0  0  0  0  0  0
    0.6467    1.6795    1.0751 H   0  0  0  0  0  0  0  0  0  0  0  0
    0.0309   -0.4185   -1.1103 H   0  0  0  0  0  0  0  0  0  0  0  0
   -1.7999    2.0773    0.9354 H   0  0  0  0  0  0  0  0  0  0  0  0
   -3.9739    1.6541    2.0264 H   0  0  0  0  0  0  0  0  0  0  0  0
   -5.2572   -1.6457    2.1724 H   0  0  0  0  0  0  0  0  0  0  0  0
   -3.1473   -3.4038    0.7762 H   0  0  0  0  0  0  0  0  0  0  0  0
   -1.4142   -2.1361    0.0656 H   0  0  0  0  0  0  0  0  0  0  0  0
  1  2  1  0
  2  3  2  0
  2  4  1  0
  4  5  2  0
  5  6  1  0
  6  7  1  0
  7  8  2  0
  8  9  1  0
  9 10  1  0
  9 11  2  0
 11 12  1  0
 11 13  1  0
 13  6  2  0
  1 14  1  0
  4 15  1  0
  5 16  1  0
  7 17  1  0
  8 18  1  0
 10 19  1  0
 12 20  1  0
 13 21  1  0
M  END
>  <clase>  (1) 
Ác. Hidroxicinámico

>  <carga>  (1) 
0

>  <InChIKey>  (1) 
QAIPRVGONGVQAS-DUXPYHPUSA-N

$$$$
