Peonidín-3-glucósido
     RDKit          3D

 56 59  0  0  0  0  0  0  0  0999 V2000
   -4.2771   -1.4261   -0.1271 O   0  0  0  0  0  0  0  0  0  0  0  0
   -2.9973   -1.9221    0.0150 C   0  0  0  0  0  0  0  0  0  0  0  0
   -2.7973   -3.1971    0.4359 C   0  0  0  0  0  0  0  0  0  0  0  0
   -1.4367   -3.7473    0.5339 C   0  0  0  0  0  0  0  0  0  0  0  0
   -1.1831   -4.7838   -0.3191 O   0  0  0  0  0  0  0  0  0  0  0  0
   -0.4666   -3.0229    1.1395 C   0  0  0  0  0  0  0  0  0  0  0  0
   -0.9163   -2.0442    2.1630 C   0  0  0  0  0  0  0  0  0  0  0  0
   -0.7175   -0.7632    1.7852 C   0  0  0  0  0  0  0  0  0  0  0  0
   -1.3315   -0.1634    0.6799 O   0  0  0  0  0  0  0  0  0  0  0  0
   -1.8352   -1.0077   -0.3763 C   0  0  2  0  0  0  0  0  0  0  0  0
   -2.0760   -0.2757   -1.5758 O   0  0  0  0  0  0  0  0  0  0  0  0
   -0.8550   -0.2784   -2.3965 C   0  0  2  0  0  0  0  0  0  0  0  0
   -0.9080    0.9657   -3.2876 C   0  0  0  0  0  0  0  0  0  0  0  0
   -0.8399    2.1197   -2.4434 O   0  0  0  0  0  0  0  0  0  0  0  0
   -0.7213   -1.6232   -3.1784 C   0  0  1  0  0  0  0  0  0  0  0  0
   -1.0817   -1.4029   -4.5502 O   0  0  0  0  0  0  0  0  0  0  0  0
    0.6995   -2.2752   -3.1316 C   0  0  2  0  0  0  0  0  0  0  0  0
    0.8319   -3.0377   -4.3615 O   0  0  0  0  0  0  0  0  0  0  0  0
    0.9360   -3.2941   -1.9564 C   0  0  1  0  0  0  0  0  0  0  0  0
    2.0165   -4.1554   -2.3422 O   0  0  0  0  0  0  0  0  0  0  0  0
    0.8096   -0.6731    1.8023 C   0  0  0  0  0  0  0  0  0  0  0  0
    1.5693   -1.6387    1.3146 O   0  0  0  0  0  0  0  0  0  0  0  0
    0.8817   -2.6899    0.5935 C   0  0  0  0  0  0  0  0  0  0  0  0
    1.3978   -2.7397   -0.6483 C   0  0  0  0  0  0  0  0  0  0  0  0
    1.4048    0.5433    2.4230 C   0  0  0  0  0  0  0  0  0  0  0  0
    2.8007    0.5469    2.5625 C   0  0  0  0  0  0  0  0  0  0  0  0
    3.4401    1.6426    3.1356 C   0  0  0  0  0  0  0  0  0  0  0  0
    2.6814    2.7255    3.5593 C   0  0  0  0  0  0  0  0  0  0  0  0
    3.3401    3.7842    4.1174 O   0  0  0  0  0  0  0  0  0  0  0  0
    1.2885    2.7477    3.4232 C   0  0  0  0  0  0  0  0  0  0  0  0
    0.6863    3.8873    3.8848 O   0  0  0  0  0  0  0  0  0  0  0  0
   -0.7219    4.0035    3.7160 C   0  0  0  0  0  0  0  0  0  0  0  0
    0.6456    1.6472    2.8521 C   0  0  0  0  0  0  0  0  0  0  0  0
   -4.2291   -0.6052   -0.6592 H   0  0  0  0  0  0  0  0  0  0  0  0
   -3.6416   -3.8385    0.6766 H   0  0  0  0  0  0  0  0  0  0  0  0
   -2.0262   -5.2204   -0.5605 H   0  0  0  0  0  0  0  0  0  0  0  0
   -0.5330   -2.3786    3.1363 H   0  0  0  0  0  0  0  0  0  0  0  0
   -1.0257   -1.6595   -0.6619 H   0  0  0  0  0  0  0  0  0  0  0  0
   -0.0031   -0.1497   -1.7140 H   0  0  0  0  0  0  0  0  0  0  0  0
   -1.8356    1.0253   -3.8662 H   0  0  0  0  0  0  0  0  0  0  0  0
   -0.0504    1.0027   -3.9656 H   0  0  0  0  0  0  0  0  0  0  0  0
   -1.7428    2.2571   -2.1023 H   0  0  0  0  0  0  0  0  0  0  0  0
   -1.4506   -2.3535   -2.8106 H   0  0  0  0  0  0  0  0  0  0  0  0
   -0.6810   -2.1421   -5.0578 H   0  0  0  0  0  0  0  0  0  0  0  0
    1.4788   -1.5044   -3.1593 H   0  0  0  0  0  0  0  0  0  0  0  0
    1.7784   -3.0113   -4.6094 H   0  0  0  0  0  0  0  0  0  0  0  0
    0.0652   -3.9344   -1.8853 H   0  0  0  0  0  0  0  0  0  0  0  0
    1.7149   -4.6296   -3.1436 H   0  0  0  0  0  0  0  0  0  0  0  0
    2.3671   -2.2445   -0.7369 H   0  0  0  0  0  0  0  0  0  0  0  0
    3.4010   -0.2999    2.2318 H   0  0  0  0  0  0  0  0  0  0  0  0
    4.5211    1.6592    3.2537 H   0  0  0  0  0  0  0  0  0  0  0  0
    2.6544    4.4428    4.3450 H   0  0  0  0  0  0  0  0  0  0  0  0
   -0.9957    3.9691    2.6563 H   0  0  0  0  0  0  0  0  0  0  0  0
   -1.0272    4.9777    4.1095 H   0  0  0  0  0  0  0  0  0  0  0  0
   -1.2497    3.2317    4.2855 H   0  0  0  0  0  0  0  0  0  0  0  0
   -0.4326    1.6550    2.7371 H   0  0  0  0  0  0  0  0  0  0  0  0
  1  2  1  0
  2  3  2  3
  3  4  1  0
  4  5  1  0
  4  6  2  3
  6  7  1  0
  7  8  2  0
  8  9  1  0
  9 10  1  0
 10 11  1  0
 11 12  1  0
 12 13  1  0
 13 14  1  0
 12 15  1  0
 15 16  1  0
 15 17  1  0
 17 18  1  0
 17 19  1  0
 19 20  1  0
  8 21  1  0
 21 22  2  0
 22 23  1  0
 23 24  2  3
 21 25  1  0
 25 26  1  0
 26 27  2  0
 27 28  1  0
 28 29  1  0
 28 30  2  0
 30 31  1  0
 31 32  1  0
 30 33  1  0
 10  2  1  0
 24 19  1  0
 33 25  2  0
 23  6  1  0
  1 34  1  0
  3 35  1  0
  5 36  1  0
  7 37  1  0
 10 38  1  6
 12 39  1  1
 13 40  1  0
 13 41  1  0
 14 42  1  0
 15 43  1  1
 16 44  1  0
 17 45  1  6
 18 46  1  0
 19 47  1  1
 20 48  1  0
 24 49  1  0
 26 50  1  0
 27 51  1  0
 29 52  1  0
 32 53  1  0
 32 54  1  0
 32 55  1  0
 33 56  1  0
M  CHG  1  22   1
M  END
>  <clase>  (1) 
Antocianina

>  <carga>  (1) 
1

>  <InChIKey>  (1) 
QSWQWTJQCHBLHI-ZWJZGKHJSA-O

$$$$
