Petunidín-3-glucósido
     RDKit          3D

 57 60  0  0  0  0  0  0  0  0999 V2000
   -2.2752   -3.6404    1.8344 O   0  0  0  0  0  0  0  0  0  0  0  0
   -1.0686   -3.2382    1.2928 C   0  0  0  0  0  0  0  0  0  0  0  0
    0.0588   -3.9606    1.5134 C   0  0  0  0  0  0  0  0  0  0  0  0
    1.3371   -3.5404    0.9248 C   0  0  0  0  0  0  0  0  0  0  0  0
    1.8798   -4.4086    0.0181 O   0  0  0  0  0  0  0  0  0  0  0  0
    1.7164   -2.2482    1.0319 C   0  0  0  0  0  0  0  0  0  0  0  0
    1.1594   -1.4826    2.1712 C   0  0  0  0  0  0  0  0  0  0  0  0
    0.3260   -0.5089    1.7552 C   0  0  0  0  0  0  0  0  0  0  0  0
   -0.8852   -0.7446    1.1024 O   0  0  0  0  0  0  0  0  0  0  0  0
   -1.0822   -1.9958    0.3898 C   0  0  2  0  0  0  0  0  0  0  0  0
   -2.2772   -1.9097   -0.3829 O   0  0  0  0  0  0  0  0  0  0  0  0
   -2.0797   -2.1083   -1.8156 C   0  0  2  0  0  0  0  0  0  0  0  0
   -2.1214   -3.6008   -2.1685 C   0  0  0  0  0  0  0  0  0  0  0  0
   -0.9918   -4.2937   -1.6560 O   0  0  0  0  0  0  0  0  0  0  0  0
   -0.9650   -1.2162   -2.4980 C   0  0  1  0  0  0  0  0  0  0  0  0
   -0.6108   -0.1023   -1.6600 O   0  0  0  0  0  0  0  0  0  0  0  0
    0.3147   -1.8168   -3.1652 C   0  0  2  0  0  0  0  0  0  0  0  0
   -0.0456   -2.7981   -4.1522 O   0  0  0  0  0  0  0  0  0  0  0  0
    1.4582   -2.4130   -2.2773 C   0  0  1  0  0  0  0  0  0  0  0  0
    2.4872   -2.8864   -3.1538 O   0  0  0  0  0  0  0  0  0  0  0  0
    1.2925    0.4588    1.0594 C   0  0  0  0  0  0  0  0  0  0  0  0
    2.3034    0.0320    0.3208 O   0  0  0  0  0  0  0  0  0  0  0  0
    2.2383   -1.3684   -0.0453 C   0  0  0  0  0  0  0  0  0  0  0  0
    2.1378   -1.4313   -1.3826 C   0  0  0  0  0  0  0  0  0  0  0  0
    1.0689    1.9119    1.3003 C   0  0  0  0  0  0  0  0  0  0  0  0
    1.9709    2.7822    0.6763 C   0  0  0  0  0  0  0  0  0  0  0  0
    1.8209    4.1479    0.8475 C   0  0  0  0  0  0  0  0  0  0  0  0
    2.6995    4.9910    0.2359 O   0  0  0  0  0  0  0  0  0  0  0  0
    0.7907    4.6541    1.6297 C   0  0  0  0  0  0  0  0  0  0  0  0
    0.6948    6.0141    1.7610 O   0  0  0  0  0  0  0  0  0  0  0  0
   -0.1185    3.8026    2.2617 C   0  0  0  0  0  0  0  0  0  0  0  0
   -1.0822    4.4373    2.9980 O   0  0  0  0  0  0  0  0  0  0  0  0
   -2.0186    3.6235    3.6963 C   0  0  0  0  0  0  0  0  0  0  0  0
    0.0208    2.4212    2.0942 C   0  0  0  0  0  0  0  0  0  0  0  0
   -2.9770   -3.1059    1.4098 H   0  0  0  0  0  0  0  0  0  0  0  0
    0.0338   -4.8616    2.1200 H   0  0  0  0  0  0  0  0  0  0  0  0
    1.3574   -5.2346    0.0080 H   0  0  0  0  0  0  0  0  0  0  0  0
    1.9972   -1.2234    2.8321 H   0  0  0  0  0  0  0  0  0  0  0  0
   -0.2813   -2.0888   -0.3251 H   0  0  0  0  0  0  0  0  0  0  0  0
   -3.0213   -1.7108   -2.2202 H   0  0  0  0  0  0  0  0  0  0  0  0
   -3.0073   -4.0577   -1.7140 H   0  0  0  0  0  0  0  0  0  0  0  0
   -2.1767   -3.7501   -3.2505 H   0  0  0  0  0  0  0  0  0  0  0  0
   -1.0801   -5.2145   -1.9701 H   0  0  0  0  0  0  0  0  0  0  0  0
   -1.4910   -0.7673   -3.3545 H   0  0  0  0  0  0  0  0  0  0  0  0
   -1.4484    0.3648   -1.4617 H   0  0  0  0  0  0  0  0  0  0  0  0
    0.7846   -0.9977   -3.7303 H   0  0  0  0  0  0  0  0  0  0  0  0
   -0.2317   -2.3253   -4.9861 H   0  0  0  0  0  0  0  0  0  0  0  0
    1.0854   -3.2863   -1.7642 H   0  0  0  0  0  0  0  0  0  0  0  0
    2.0279   -3.4307   -3.8254 H   0  0  0  0  0  0  0  0  0  0  0  0
    2.4872   -0.5431   -1.9079 H   0  0  0  0  0  0  0  0  0  0  0  0
    2.7863    2.4090    0.0594 H   0  0  0  0  0  0  0  0  0  0  0  0
    2.4176    5.8935    0.4949 H   0  0  0  0  0  0  0  0  0  0  0  0
   -0.0753    6.1708    2.3448 H   0  0  0  0  0  0  0  0  0  0  0  0
   -2.6180    3.0292    2.9989 H   0  0  0  0  0  0  0  0  0  0  0  0
   -1.5147    2.9841    4.4285 H   0  0  0  0  0  0  0  0  0  0  0  0
   -2.6975    4.2864    4.2410 H   0  0  0  0  0  0  0  0  0  0  0  0
   -0.6823    1.7478    2.5726 H   0  0  0  0  0  0  0  0  0  0  0  0
  1  2  1  0
  2  3  2  3
  3  4  1  0
  4  5  1  0
  4  6  2  3
  6  7  1  0
  7  8  2  0
  8  9  1  0
  9 10  1  0
 10 11  1  0
 11 12  1  0
 12 13  1  0
 13 14  1  0
 12 15  1  0
 15 16  1  0
 15 17  1  0
 17 18  1  0
 17 19  1  0
 19 20  1  0
  8 21  1  0
 21 22  2  0
 22 23  1  0
 23 24  2  3
 21 25  1  0
 25 26  1  0
 26 27  2  0
 27 28  1  0
 27 29  1  0
 29 30  1  0
 29 31  2  0
 31 32  1  0
 32 33  1  0
 31 34  1  0
 10  2  1  0
 24 19  1  0
 34 25  2  0
 23  6  1  0
  1 35  1  0
  3 36  1  0
  5 37  1  0
  7 38  1  0
 10 39  1  6
 12 40  1  6
 13 41  1  0
 13 42  1  0
 14 43  1  0
 15 44  1  6
 16 45  1  0
 17 46  1  6
 18 47  1  0
 19 48  1  1
 20 49  1  0
 24 50  1  0
 26 51  1  0
 28 52  1  0
 30 53  1  0
 33 54  1  0
 33 55  1  0
 33 56  1  0
 34 57  1  0
M  CHG  1  22   1
M  END
>  <clase>  (1) 
Antocianina

>  <carga>  (1) 
1

>  <InChIKey>  (1) 
QXIQXAOTBGISST-ALXQXQAHSA-O

$$$$
