Quercetina
     RDKit          3D

 32 34  0  0  0  0  0  0  0  0999 V2000
    0.9340    1.8517    2.4646 O   0  0  0  0  0  0  0  0  0  0  0  0
    0.8551    0.9787    1.6027 C   0  0  0  0  0  0  0  0  0  0  0  0
   -0.4651    0.4641    1.1721 C   0  0  0  0  0  0  0  0  0  0  0  0
   -1.5822    1.0189    1.7693 O   0  0  0  0  0  0  0  0  0  0  0  0
   -0.5040   -0.4906    0.2241 C   0  0  0  0  0  0  0  0  0  0  0  0
   -1.7630   -1.0668   -0.2951 C   0  0  0  0  0  0  0  0  0  0  0  0
   -2.7836   -1.5096    0.5670 C   0  0  0  0  0  0  0  0  0  0  0  0
   -3.9626   -2.0729    0.0642 C   0  0  0  0  0  0  0  0  0  0  0  0
   -4.1177   -2.2014   -1.3089 C   0  0  0  0  0  0  0  0  0  0  0  0
   -5.2444   -2.7425   -1.8629 O   0  0  0  0  0  0  0  0  0  0  0  0
   -3.1110   -1.7771   -2.1708 C   0  0  0  0  0  0  0  0  0  0  0  0
   -3.2700   -1.9108   -3.5210 O   0  0  0  0  0  0  0  0  0  0  0  0
   -1.9391   -1.2167   -1.6794 C   0  0  0  0  0  0  0  0  0  0  0  0
    0.6258   -1.0218   -0.3873 O   0  0  0  0  0  0  0  0  0  0  0  0
    1.8627   -0.5698   -0.0048 C   0  0  0  0  0  0  0  0  0  0  0  0
    2.9692   -1.1365   -0.6364 C   0  0  0  0  0  0  0  0  0  0  0  0
    4.2494   -0.7142   -0.2874 C   0  0  0  0  0  0  0  0  0  0  0  0
    5.3034   -1.2942   -0.9287 O   0  0  0  0  0  0  0  0  0  0  0  0
    4.4433    0.2658    0.6826 C   0  0  0  0  0  0  0  0  0  0  0  0
    3.3341    0.8285    1.3097 C   0  0  0  0  0  0  0  0  0  0  0  0
    3.5815    1.7872    2.2548 O   0  0  0  0  0  0  0  0  0  0  0  0
    2.0443    0.4105    0.9661 C   0  0  0  0  0  0  0  0  0  0  0  0
   -1.2360    1.7030    2.3802 H   0  0  0  0  0  0  0  0  0  0  0  0
   -2.6669   -1.4177    1.6452 H   0  0  0  0  0  0  0  0  0  0  0  0
   -4.7321   -2.3992    0.7560 H   0  0  0  0  0  0  0  0  0  0  0  0
   -5.8523   -2.9776   -1.1409 H   0  0  0  0  0  0  0  0  0  0  0  0
   -4.1525   -2.3196   -3.6239 H   0  0  0  0  0  0  0  0  0  0  0  0
   -1.1729   -0.8955   -2.3799 H   0  0  0  0  0  0  0  0  0  0  0  0
    2.8377   -1.9024   -1.3961 H   0  0  0  0  0  0  0  0  0  0  0  0
    6.1293   -0.9049   -0.5945 H   0  0  0  0  0  0  0  0  0  0  0  0
    5.4379    0.6005    0.9602 H   0  0  0  0  0  0  0  0  0  0  0  0
    2.7211    2.1019    2.6118 H   0  0  0  0  0  0  0  0  0  0  0  0
  1  2  2  0
  2  3  1  0
  3  4  1  0
  3  5  2  0
  5  6  1  0
  6  7  1  0
  7  8  2  0
  8  9  1  0
  9 10  1  0
  9 11  2  0
 11 12  1  0
 11 13  1  0
  5 14  1  0
 14 15  1  0
 15 16  2  0
 16 17  1  0
 17 18  1  0
 17 19  2  0
 19 20  1  0
 20 21  1  0
 20 22  2  0
 13  6  2  0
 22  2  1  0
 22 15  1  0
  4 23  1  0
  7 24  1  0
  8 25  1  0
 10 26  1  0
 12 27  1  0
 13 28  1  0
 16 29  1  0
 18 30  1  0
 19 31  1  0
 21 32  1  0
M  END
>  <clase>  (1) 
Flavonol

>  <carga>  (1) 
0

>  <InChIKey>  (1) 
REFJWTPEDVJJIY-UHFFFAOYSA-N

>  <fuente>  (1) 
Molecules 2019

$$$$
