Cianidín-3-glucósido
     RDKit          3D

 53 56  0  0  0  0  0  0  0  0999 V2000
   -4.9005   -0.1369    4.3959 O   0  0  0  0  0  0  0  0  0  0  0  0
   -4.0368   -0.4870    3.4050 C   0  0  0  0  0  0  0  0  0  0  0  0
   -3.7008   -1.8129    3.1609 C   0  0  0  0  0  0  0  0  0  0  0  0
   -2.8092   -2.0990    2.1275 C   0  0  0  0  0  0  0  0  0  0  0  0
   -2.4542   -3.3937    1.8651 O   0  0  0  0  0  0  0  0  0  0  0  0
   -2.2447   -1.0784    1.3356 C   0  0  0  0  0  0  0  0  0  0  0  0
   -1.3348   -1.3220    0.3010 C   0  0  0  0  0  0  0  0  0  0  0  0
   -0.7454   -0.2766   -0.4067 C   0  0  0  0  0  0  0  0  0  0  0  0
    0.1350   -0.5319   -1.4252 O   0  0  0  0  0  0  0  0  0  0  0  0
    1.2099   -1.4744   -1.2090 C   0  0  2  0  0  0  0  0  0  0  0  0
    0.7612   -2.8212   -1.3726 O   0  0  0  0  0  0  0  0  0  0  0  0
    1.8424   -3.7772   -1.3801 C   0  0  2  0  0  0  0  0  0  0  0  0
    1.2183   -5.1694   -1.5502 C   0  0  0  0  0  0  0  0  0  0  0  0
    0.2425   -5.4001   -0.5344 O   0  0  0  0  0  0  0  0  0  0  0  0
    2.6857   -3.6941   -0.0911 C   0  0  1  0  0  0  0  0  0  0  0  0
    3.8470   -4.5277   -0.1422 O   0  0  0  0  0  0  0  0  0  0  0  0
    3.1416   -2.2538    0.1646 C   0  0  2  0  0  0  0  0  0  0  0  0
    3.7728   -2.1425    1.4471 O   0  0  0  0  0  0  0  0  0  0  0  0
    1.9511   -1.2988    0.1344 C   0  0  1  0  0  0  0  0  0  0  0  0
    2.3884    0.0503    0.3253 O   0  0  0  0  0  0  0  0  0  0  0  0
   -1.1272    1.0570   -0.1471 C   0  0  0  0  0  0  0  0  0  0  0  0
   -2.1415    1.3273    0.8315 O   0  0  0  0  0  0  0  0  0  0  0  0
   -2.6141    0.2435    1.6095 C   0  0  0  0  0  0  0  0  0  0  0  0
   -3.5030    0.5394    2.6368 C   0  0  0  0  0  0  0  0  0  0  0  0
   -0.6668    2.2790   -0.8398 C   0  0  0  0  0  0  0  0  0  0  0  0
   -1.5211    3.4070   -0.8720 C   0  0  0  0  0  0  0  0  0  0  0  0
   -1.1492    4.5999   -1.5024 C   0  0  0  0  0  0  0  0  0  0  0  0
    0.0936    4.6877   -2.1037 C   0  0  0  0  0  0  0  0  0  0  0  0
    0.4697    5.8677   -2.6695 O   0  0  0  0  0  0  0  0  0  0  0  0
    0.9455    3.5928   -2.1043 C   0  0  0  0  0  0  0  0  0  0  0  0
    2.1445    3.6382   -2.7534 O   0  0  0  0  0  0  0  0  0  0  0  0
    0.5869    2.4082   -1.4642 C   0  0  0  0  0  0  0  0  0  0  0  0
   -5.2235   -0.9209    4.8761 H   0  0  0  0  0  0  0  0  0  0  0  0
   -4.1259   -2.6099    3.7655 H   0  0  0  0  0  0  0  0  0  0  0  0
   -2.8916   -4.0099    2.4823 H   0  0  0  0  0  0  0  0  0  0  0  0
   -1.0897   -2.3549    0.0595 H   0  0  0  0  0  0  0  0  0  0  0  0
    1.9108   -1.2531   -2.0243 H   0  0  0  0  0  0  0  0  0  0  0  0
    2.4786   -3.5859   -2.2540 H   0  0  0  0  0  0  0  0  0  0  0  0
    1.9726   -5.9598   -1.4976 H   0  0  0  0  0  0  0  0  0  0  0  0
    0.7064   -5.2437   -2.5156 H   0  0  0  0  0  0  0  0  0  0  0  0
   -0.4787   -4.7680   -0.7043 H   0  0  0  0  0  0  0  0  0  0  0  0
    2.0973   -4.0282    0.7720 H   0  0  0  0  0  0  0  0  0  0  0  0
    4.3622   -4.3329   -0.9454 H   0  0  0  0  0  0  0  0  0  0  0  0
    3.9000   -1.9499   -0.5673 H   0  0  0  0  0  0  0  0  0  0  0  0
    4.3352   -2.9391    1.5484 H   0  0  0  0  0  0  0  0  0  0  0  0
    1.2978   -1.5302    0.9827 H   0  0  0  0  0  0  0  0  0  0  0  0
    3.0881    0.0018    1.0134 H   0  0  0  0  0  0  0  0  0  0  0  0
   -3.7760    1.5731    2.8215 H   0  0  0  0  0  0  0  0  0  0  0  0
   -2.5002    3.3666   -0.3920 H   0  0  0  0  0  0  0  0  0  0  0  0
   -1.8202    5.4554   -1.5064 H   0  0  0  0  0  0  0  0  0  0  0  0
    1.3868    6.0410   -2.3866 H   0  0  0  0  0  0  0  0  0  0  0  0
    2.0495    4.2818   -3.4813 H   0  0  0  0  0  0  0  0  0  0  0  0
    1.3151    1.6023   -1.4690 H   0  0  0  0  0  0  0  0  0  0  0  0
  1  2  1  0
  2  3  2  0
  3  4  1  0
  4  5  1  0
  4  6  2  0
  6  7  1  0
  7  8  2  0
  8  9  1  0
  9 10  1  0
 10 11  1  0
 11 12  1  0
 12 13  1  0
 13 14  1  0
 12 15  1  0
 15 16  1  0
 15 17  1  0
 17 18  1  0
 17 19  1  0
 19 20  1  0
  8 21  1  0
 21 22  2  0
 22 23  1  0
 23 24  2  0
 21 25  1  0
 25 26  1  0
 26 27  2  0
 27 28  1  0
 28 29  1  0
 28 30  2  0
 30 31  1  0
 30 32  1  0
 19 10  1  0
 32 25  2  0
 24  2  1  0
 23  6  1  0
  1 33  1  0
  3 34  1  0
  5 35  1  0
  7 36  1  0
 10 37  1  6
 12 38  1  6
 13 39  1  0
 13 40  1  0
 14 41  1  0
 15 42  1  1
 16 43  1  0
 17 44  1  6
 18 45  1  0
 19 46  1  1
 20 47  1  0
 24 48  1  0
 26 49  1  0
 27 50  1  0
 29 51  1  0
 31 52  1  0
 32 53  1  0
M  CHG  1  22   1
M  END
>  <clase>  (1) 
Antocianina

>  <carga>  (1) 
1

>  <InChIKey>  (1) 
RKWHWFONKJEUEF-GQUPQBGVSA-O

>  <fuente>  (1) 
Ruiz 2024

$$$$
