Vitexina
     RDKit          3D

 51 54  0  0  0  0  0  0  0  0999 V2000
   -0.1446   -1.4307    4.9654 O   0  0  0  0  0  0  0  0  0  0  0  0
   -0.2273   -1.0954    3.7886 C   0  0  0  0  0  0  0  0  0  0  0  0
   -1.4189   -0.4166    3.2667 C   0  0  0  0  0  0  0  0  0  0  0  0
   -1.4501   -0.0760    1.9715 C   0  0  0  0  0  0  0  0  0  0  0  0
   -2.6123    0.6089    1.3721 C   0  0  0  0  0  0  0  0  0  0  0  0
   -2.4102    1.6440    0.4443 C   0  0  0  0  0  0  0  0  0  0  0  0
   -3.4927    2.2942   -0.1559 C   0  0  0  0  0  0  0  0  0  0  0  0
   -4.7865    1.9063    0.1707 C   0  0  0  0  0  0  0  0  0  0  0  0
   -5.8732    2.5090   -0.3885 O   0  0  0  0  0  0  0  0  0  0  0  0
   -5.0124    0.8822    1.0811 C   0  0  0  0  0  0  0  0  0  0  0  0
   -3.9291    0.2314    1.6773 C   0  0  0  0  0  0  0  0  0  0  0  0
   -0.4130   -0.3021    1.0832 O   0  0  0  0  0  0  0  0  0  0  0  0
    0.7219   -0.9475    1.5172 C   0  0  0  0  0  0  0  0  0  0  0  0
    1.7454   -1.1832    0.5749 C   0  0  0  0  0  0  0  0  0  0  0  0
    1.6224   -0.7292   -0.8748 C   0  0  2  0  0  0  0  0  0  0  0  0
    1.3402    0.6799   -0.8613 O   0  0  0  0  0  0  0  0  0  0  0  0
    1.2792    1.2400   -2.1751 C   0  0  2  0  0  0  0  0  0  0  0  0
    1.0928    2.7566   -2.0263 C   0  0  0  0  0  0  0  0  0  0  0  0
    0.9634    3.3889   -3.2971 O   0  0  0  0  0  0  0  0  0  0  0  0
    0.1368    0.5997   -2.9763 C   0  0  1  0  0  0  0  0  0  0  0  0
    0.0696    1.0831   -4.3262 O   0  0  0  0  0  0  0  0  0  0  0  0
    0.3242   -0.9196   -3.0386 C   0  0  2  0  0  0  0  0  0  0  0  0
   -0.8469   -1.4898   -3.6513 O   0  0  0  0  0  0  0  0  0  0  0  0
    0.5541   -1.5375   -1.6519 C   0  0  1  0  0  0  0  0  0  0  0  0
    0.9847   -2.8992   -1.8239 O   0  0  0  0  0  0  0  0  0  0  0  0
    2.8932   -1.8661    1.0130 C   0  0  0  0  0  0  0  0  0  0  0  0
    3.8902   -2.1319    0.1164 O   0  0  0  0  0  0  0  0  0  0  0  0
    3.0365   -2.2874    2.3356 C   0  0  0  0  0  0  0  0  0  0  0  0
    2.0211   -2.0325    3.2490 C   0  0  0  0  0  0  0  0  0  0  0  0
    2.2240   -2.4708    4.5296 O   0  0  0  0  0  0  0  0  0  0  0  0
    0.8632   -1.3658    2.8429 C   0  0  0  0  0  0  0  0  0  0  0  0
   -2.2186   -0.2185    3.9682 H   0  0  0  0  0  0  0  0  0  0  0  0
   -1.4003    1.9548    0.1862 H   0  0  0  0  0  0  0  0  0  0  0  0
   -3.3064    3.0915   -0.8681 H   0  0  0  0  0  0  0  0  0  0  0  0
   -5.5684    3.1658   -1.0357 H   0  0  0  0  0  0  0  0  0  0  0  0
   -6.0294    0.5834    1.3202 H   0  0  0  0  0  0  0  0  0  0  0  0
   -4.1319   -0.5831    2.3688 H   0  0  0  0  0  0  0  0  0  0  0  0
    2.5899   -0.8562   -1.3759 H   0  0  0  0  0  0  0  0  0  0  0  0
    2.2305    1.0730   -2.6985 H   0  0  0  0  0  0  0  0  0  0  0  0
    1.9526    3.1870   -1.5008 H   0  0  0  0  0  0  0  0  0  0  0  0
    0.2013    2.9828   -1.4318 H   0  0  0  0  0  0  0  0  0  0  0  0
    1.0100    4.3500   -3.1359 H   0  0  0  0  0  0  0  0  0  0  0  0
   -0.8293    0.8234   -2.5069 H   0  0  0  0  0  0  0  0  0  0  0  0
    0.2671    2.0452   -4.2899 H   0  0  0  0  0  0  0  0  0  0  0  0
    1.1596   -1.1740   -3.7035 H   0  0  0  0  0  0  0  0  0  0  0  0
   -0.9621   -0.9892   -4.4829 H   0  0  0  0  0  0  0  0  0  0  0  0
   -0.4061   -1.5683   -1.1249 H   0  0  0  0  0  0  0  0  0  0  0  0
    0.9746   -3.3210   -0.9480 H   0  0  0  0  0  0  0  0  0  0  0  0
    4.6135   -2.6027    0.5657 H   0  0  0  0  0  0  0  0  0  0  0  0
    3.9263   -2.8124    2.6707 H   0  0  0  0  0  0  0  0  0  0  0  0
    1.4383   -2.2232    5.0692 H   0  0  0  0  0  0  0  0  0  0  0  0
  1  2  2  0
  2  3  1  0
  3  4  2  0
  4  5  1  0
  5  6  1  0
  6  7  2  0
  7  8  1  0
  8  9  1  0
  8 10  2  0
 10 11  1  0
  4 12  1  0
 12 13  1  0
 13 14  1  0
 14 15  1  0
 15 16  1  0
 16 17  1  0
 17 18  1  0
 18 19  1  0
 17 20  1  0
 20 21  1  0
 20 22  1  0
 22 23  1  0
 22 24  1  0
 24 25  1  0
 14 26  2  0
 26 27  1  0
 26 28  1  0
 28 29  2  0
 29 30  1  0
 29 31  1  0
 31  2  1  0
 11  5  2  0
 31 13  2  0
 24 15  1  0
  3 32  1  0
  6 33  1  0
  7 34  1  0
  9 35  1  0
 10 36  1  0
 11 37  1  0
 15 38  1  6
 17 39  1  6
 18 40  1  0
 18 41  1  0
 19 42  1  0
 20 43  1  1
 21 44  1  0
 22 45  1  6
 23 46  1  0
 24 47  1  1
 25 48  1  0
 27 49  1  0
 28 50  1  0
 30 51  1  0
M  END
>  <clase>  (1) 
Flavona

>  <carga>  (1) 
0

>  <InChIKey>  (1) 
SGEWCQFRYRRZDC-VPRICQMDSA-N

$$$$
