Vitexina
     RDKit          3D

 51 54  0  0  0  0  0  0  0  0999 V2000
    1.1193    4.1773   -1.8780 O   0  0  0  0  0  0  0  0  0  0  0  0
    0.8473    3.0673   -1.4329 C   0  0  0  0  0  0  0  0  0  0  0  0
    1.1564    2.7060   -0.0436 C   0  0  0  0  0  0  0  0  0  0  0  0
    0.8507    1.4733    0.3802 C   0  0  0  0  0  0  0  0  0  0  0  0
    1.1398    1.0241    1.7539 C   0  0  0  0  0  0  0  0  0  0  0  0
    0.8015    1.8073    2.8672 C   0  0  0  0  0  0  0  0  0  0  0  0
    1.0596    1.3487    4.1615 C   0  0  0  0  0  0  0  0  0  0  0  0
    1.6545    0.1072    4.3484 C   0  0  0  0  0  0  0  0  0  0  0  0
    1.8878   -0.2984    5.6282 O   0  0  0  0  0  0  0  0  0  0  0  0
    1.9939   -0.6901    3.2618 C   0  0  0  0  0  0  0  0  0  0  0  0
    1.7322   -0.2317    1.9676 C   0  0  0  0  0  0  0  0  0  0  0  0
    0.2675    0.5016   -0.4092 O   0  0  0  0  0  0  0  0  0  0  0  0
   -0.0962    0.8023   -1.7007 C   0  0  0  0  0  0  0  0  0  0  0  0
   -0.7469   -0.1967   -2.4529 C   0  0  0  0  0  0  0  0  0  0  0  0
   -1.1755   -1.5368   -1.8618 C   0  0  2  0  0  0  0  0  0  0  0  0
   -1.4640   -1.3878   -0.4661 O   0  0  0  0  0  0  0  0  0  0  0  0
   -1.8457   -2.5920    0.1982 C   0  0  2  0  0  0  0  0  0  0  0  0
   -2.1212   -2.2401    1.6675 C   0  0  0  0  0  0  0  0  0  0  0  0
   -2.4492   -3.4050    2.4215 O   0  0  0  0  0  0  0  0  0  0  0  0
   -0.7485   -3.6612    0.0749 C   0  0  1  0  0  0  0  0  0  0  0  0
   -1.1278   -4.9190    0.6468 O   0  0  0  0  0  0  0  0  0  0  0  0
   -0.4513   -3.9037   -1.4029 C   0  0  2  0  0  0  0  0  0  0  0  0
    0.6414   -4.8260   -1.5451 O   0  0  0  0  0  0  0  0  0  0  0  0
   -0.0980   -2.6053   -2.1254 C   0  0  1  0  0  0  0  0  0  0  0  0
    0.0053   -2.8909   -3.5363 O   0  0  0  0  0  0  0  0  0  0  0  0
   -0.9881    0.0737   -3.8114 C   0  0  0  0  0  0  0  0  0  0  0  0
   -1.4744   -0.8908   -4.6519 O   0  0  0  0  0  0  0  0  0  0  0  0
   -0.7090    1.3144   -4.3803 C   0  0  0  0  0  0  0  0  0  0  0  0
   -0.1239    2.3056   -3.6038 C   0  0  0  0  0  0  0  0  0  0  0  0
    0.1336    3.5016   -4.2175 O   0  0  0  0  0  0  0  0  0  0  0  0
    0.1967    2.0474   -2.2684 C   0  0  0  0  0  0  0  0  0  0  0  0
    1.6332    3.4595    0.5693 H   0  0  0  0  0  0  0  0  0  0  0  0
    0.3208    2.7750    2.7426 H   0  0  0  0  0  0  0  0  0  0  0  0
    0.7951    1.9590    5.0208 H   0  0  0  0  0  0  0  0  0  0  0  0
    2.3574   -1.1485    5.6070 H   0  0  0  0  0  0  0  0  0  0  0  0
    2.4575   -1.6621    3.3979 H   0  0  0  0  0  0  0  0  0  0  0  0
    2.0009   -0.8610    1.1213 H   0  0  0  0  0  0  0  0  0  0  0  0
   -2.1175   -1.8286   -2.3457 H   0  0  0  0  0  0  0  0  0  0  0  0
   -2.7784   -2.9743   -0.2376 H   0  0  0  0  0  0  0  0  0  0  0  0
   -2.9516   -1.5282    1.7321 H   0  0  0  0  0  0  0  0  0  0  0  0
   -1.2459   -1.7631    2.1223 H   0  0  0  0  0  0  0  0  0  0  0  0
   -2.7175   -3.0907    3.3059 H   0  0  0  0  0  0  0  0  0  0  0  0
    0.1684   -3.3367    0.5823 H   0  0  0  0  0  0  0  0  0  0  0  0
   -1.6087   -4.7106    1.4799 H   0  0  0  0  0  0  0  0  0  0  0  0
   -1.3072   -4.3878   -1.8907 H   0  0  0  0  0  0  0  0  0  0  0  0
    0.4312   -5.5552   -0.9246 H   0  0  0  0  0  0  0  0  0  0  0  0
    0.8887   -2.2562   -1.7949 H   0  0  0  0  0  0  0  0  0  0  0  0
    0.5972   -3.6731   -3.5828 H   0  0  0  0  0  0  0  0  0  0  0  0
   -0.9805   -1.7195   -4.4561 H   0  0  0  0  0  0  0  0  0  0  0  0
   -0.9278    1.4978   -5.4286 H   0  0  0  0  0  0  0  0  0  0  0  0
    0.5540    4.1015   -3.5608 H   0  0  0  0  0  0  0  0  0  0  0  0
  1  2  2  0
  2  3  1  0
  3  4  2  0
  4  5  1  0
  5  6  1  0
  6  7  2  0
  7  8  1  0
  8  9  1  0
  8 10  2  0
 10 11  1  0
  4 12  1  0
 12 13  1  0
 13 14  1  0
 14 15  1  0
 15 16  1  0
 16 17  1  0
 17 18  1  0
 18 19  1  0
 17 20  1  0
 20 21  1  0
 20 22  1  0
 22 23  1  0
 22 24  1  0
 24 25  1  0
 14 26  2  0
 26 27  1  0
 26 28  1  0
 28 29  2  0
 29 30  1  0
 29 31  1  0
 31  2  1  0
 11  5  2  0
 31 13  2  0
 24 15  1  0
  3 32  1  0
  6 33  1  0
  7 34  1  0
  9 35  1  0
 10 36  1  0
 11 37  1  0
 15 38  1  6
 17 39  1  6
 18 40  1  0
 18 41  1  0
 19 42  1  0
 20 43  1  1
 21 44  1  0
 22 45  1  6
 23 46  1  0
 24 47  1  1
 25 48  1  0
 27 49  1  0
 28 50  1  0
 30 51  1  0
M  END
>  <clase>  (1) 
Flavona

>  <carga>  (1) 
0

>  <InChIKey>  (1) 
SGEWCQFRYRRZDC-VPRICQMDSA-N

>  <parte_planta>  (1) 
hojas

$$$$
