Quercetín-3-malonilglucósido
     RDKit          3D

 61 64  0  0  0  0  0  0  0  0999 V2000
    2.4710    0.2431   -2.2266 O   0  0  0  0  0  0  0  0  0  0  0  0
    1.6054   -0.5521   -1.9257 C   0  0  0  0  0  0  0  0  0  0  0  0
    0.2574   -0.5092   -1.3493 C   0  0  0  0  0  0  0  0  0  0  0  0
    0.0521   -1.7665   -1.5755 O   0  0  0  0  0  0  0  0  0  0  0  0
    1.4573   -2.0610   -1.7482 C   0  0  2  0  0  0  0  0  0  0  0  0
    2.0168   -2.7170   -0.5831 O   0  0  0  0  0  0  0  0  0  0  0  0
    2.1752   -1.9940    0.6552 C   0  0  2  0  0  0  0  0  0  0  0  0
    3.6690   -2.0799    1.0235 C   0  0  0  0  0  0  0  0  0  0  0  0
    4.4270   -1.3598    0.0231 O   0  0  0  0  0  0  0  0  0  0  0  0
    5.0778   -2.1008   -0.9138 C   0  0  0  0  0  0  0  0  0  0  0  0
    5.1799   -3.3199   -0.9118 O   0  0  0  0  0  0  0  0  0  0  0  0
    5.6702   -1.2112   -1.9615 C   0  0  0  0  0  0  0  0  0  0  0  0
    5.0794   -1.4575   -3.3096 C   0  0  0  0  0  0  0  0  0  0  0  0
    4.0412   -2.0398   -3.5775 O   0  0  0  0  0  0  0  0  0  0  0  0
    5.8181   -0.9010   -4.2938 O   0  0  0  0  0  0  0  0  0  0  0  0
    1.2654   -2.6010    1.7499 C   0  0  1  0  0  0  0  0  0  0  0  0
    1.7727   -2.2587    3.0493 O   0  0  0  0  0  0  0  0  0  0  0  0
   -0.2599   -2.2627    1.6693 C   0  0  2  0  0  0  0  0  0  0  0  0
   -0.9374   -3.0754    0.7059 O   0  0  0  0  0  0  0  0  0  0  0  0
   -0.7349   -0.7628    1.6540 C   0  0  1  0  0  0  0  0  0  0  0  0
    0.2736    0.1117    2.1604 O   0  0  0  0  0  0  0  0  0  0  0  0
   -0.4127    0.3871   -0.6068 C   0  0  0  0  0  0  0  0  0  0  0  0
   -1.3482   -0.1948    0.3639 C   0  0  0  0  0  0  0  0  0  0  0  0
   -2.6768   -0.2873    0.1511 C   0  0  0  0  0  0  0  0  0  0  0  0
   -3.4097    0.2919   -0.9525 C   0  0  0  0  0  0  0  0  0  0  0  0
   -3.7515    1.5874   -1.0089 C   0  0  0  0  0  0  0  0  0  0  0  0
   -4.4613    2.0806   -2.0848 O   0  0  0  0  0  0  0  0  0  0  0  0
   -3.4210    2.5536    0.0220 C   0  0  0  0  0  0  0  0  0  0  0  0
   -4.3191    2.5682    1.0682 O   0  0  0  0  0  0  0  0  0  0  0  0
   -2.3480    3.3571   -0.0077 C   0  0  0  0  0  0  0  0  0  0  0  0
    0.0204    1.6805   -0.3209 O   0  0  0  0  0  0  0  0  0  0  0  0
   -0.2857    2.6388   -1.2694 C   0  0  0  0  0  0  0  0  0  0  0  0
    0.6171    2.8751   -2.3095 C   0  0  0  0  0  0  0  0  0  0  0  0
    0.3393    3.8346   -3.2786 C   0  0  0  0  0  0  0  0  0  0  0  0
    1.2497    4.0024   -4.2806 O   0  0  0  0  0  0  0  0  0  0  0  0
   -0.8201    4.5957   -3.2212 C   0  0  0  0  0  0  0  0  0  0  0  0
   -1.6918    4.4044   -2.1505 C   0  0  0  0  0  0  0  0  0  0  0  0
   -2.8326    5.1646   -2.0635 O   0  0  0  0  0  0  0  0  0  0  0  0
   -1.4285    3.4470   -1.1502 C   0  0  0  0  0  0  0  0  0  0  0  0
    1.6269   -2.6468   -2.6558 H   0  0  0  0  0  0  0  0  0  0  0  0
    1.9589   -0.9319    0.5343 H   0  0  0  0  0  0  0  0  0  0  0  0
    4.0001   -3.1207    1.1090 H   0  0  0  0  0  0  0  0  0  0  0  0
    3.8744   -1.5795    1.9746 H   0  0  0  0  0  0  0  0  0  0  0  0
    5.5126   -0.1590   -1.7022 H   0  0  0  0  0  0  0  0  0  0  0  0
    6.7481   -1.4023   -1.9829 H   0  0  0  0  0  0  0  0  0  0  0  0
    5.3110   -1.0897   -5.1115 H   0  0  0  0  0  0  0  0  0  0  0  0
    1.3531   -3.6928    1.6663 H   0  0  0  0  0  0  0  0  0  0  0  0
    1.2448   -2.7394    3.7105 H   0  0  0  0  0  0  0  0  0  0  0  0
   -0.6541   -2.6385    2.6247 H   0  0  0  0  0  0  0  0  0  0  0  0
   -0.6699   -2.7750   -0.1833 H   0  0  0  0  0  0  0  0  0  0  0  0
   -1.5336   -0.7100    2.4084 H   0  0  0  0  0  0  0  0  0  0  0  0
   -0.0272    1.0246    2.0022 H   0  0  0  0  0  0  0  0  0  0  0  0
   -3.3078   -0.8060    0.8720 H   0  0  0  0  0  0  0  0  0  0  0  0
   -3.7340   -0.3837   -1.7383 H   0  0  0  0  0  0  0  0  0  0  0  0
   -4.5422    3.0420   -1.9439 H   0  0  0  0  0  0  0  0  0  0  0  0
   -4.0326    3.2396    1.7082 H   0  0  0  0  0  0  0  0  0  0  0  0
   -2.1425    4.0594    0.7927 H   0  0  0  0  0  0  0  0  0  0  0  0
    1.5518    2.3321   -2.3700 H   0  0  0  0  0  0  0  0  0  0  0  0
    0.9295    4.6780   -4.8997 H   0  0  0  0  0  0  0  0  0  0  0  0
   -1.0317    5.3345   -3.9852 H   0  0  0  0  0  0  0  0  0  0  0  0
   -2.8462    5.8013   -2.7974 H   0  0  0  0  0  0  0  0  0  0  0  0
  1  2  2  0
  2  3  1  0
  3  4  1  0
  4  5  1  0
  5  6  1  0
  6  7  1  0
  7  8  1  0
  8  9  1  0
  9 10  1  0
 10 11  2  0
 10 12  1  0
 12 13  1  0
 13 14  2  0
 13 15  1  0
  7 16  1  0
 16 17  1  0
 16 18  1  0
 18 19  1  0
 18 20  1  0
 20 21  1  0
  3 22  2  3
 22 23  1  0
 23 24  2  3
 24 25  1  0
 25 26  2  3
 26 27  1  0
 26 28  1  0
 28 29  1  0
 28 30  2  3
 22 31  1  0
 31 32  1  0
 32 33  2  0
 33 34  1  0
 34 35  1  0
 34 36  2  0
 36 37  1  0
 37 38  1  0
 37 39  2  0
  5  2  1  0
 23 20  1  0
 39 30  1  0
 39 32  1  0
  5 40  1  6
  7 41  1  6
  8 42  1  0
  8 43  1  0
 12 44  1  0
 12 45  1  0
 15 46  1  0
 16 47  1  1
 17 48  1  0
 18 49  1  1
 19 50  1  0
 20 51  1  1
 21 52  1  0
 24 53  1  0
 25 54  1  0
 27 55  1  0
 29 56  1  0
 30 57  1  0
 33 58  1  0
 35 59  1  0
 36 60  1  0
 38 61  1  0
M  END
>  <clase>  (1) 
Flavonol

>  <carga>  (1) 
0

>  <InChIKey>  (1) 
SPHQJXJKURTGBW-RDKBWNCDSA-N

$$$$
