Quercetín-3-malonilgalactosido
     RDKit          3D

 61 64  0  0  0  0  0  0  0  0999 V2000
   -0.7371   -2.9202   -0.5451 O   0  0  0  0  0  0  0  0  0  0  0  0
    0.3045   -2.3469   -0.3099 C   0  0  0  0  0  0  0  0  0  0  0  0
    0.8812   -1.5544    0.7787 C   0  0  0  0  0  0  0  0  0  0  0  0
    2.0733   -1.6899    0.2958 O   0  0  0  0  0  0  0  0  0  0  0  0
    1.5757   -1.9204   -1.0484 C   0  0  2  0  0  0  0  0  0  0  0  0
    1.5972   -0.6923   -1.8327 O   0  0  0  0  0  0  0  0  0  0  0  0
    0.3851    0.0494   -2.0439 C   0  0  2  0  0  0  0  0  0  0  0  0
    0.0614   -0.0414   -3.5445 C   0  0  0  0  0  0  0  0  0  0  0  0
   -1.2288    0.5327   -3.7944 O   0  0  0  0  0  0  0  0  0  0  0  0
   -1.6384    0.4397   -5.0936 C   0  0  0  0  0  0  0  0  0  0  0  0
   -1.0151   -0.1337   -5.9756 O   0  0  0  0  0  0  0  0  0  0  0  0
   -2.9898    1.0618   -5.2558 C   0  0  0  0  0  0  0  0  0  0  0  0
   -3.1237    1.8277   -6.5288 C   0  0  0  0  0  0  0  0  0  0  0  0
   -2.2630    2.4805   -7.0930 O   0  0  0  0  0  0  0  0  0  0  0  0
   -4.3862    1.8146   -7.0048 O   0  0  0  0  0  0  0  0  0  0  0  0
    0.5754    1.5243   -1.6028 C   0  0  2  0  0  0  0  0  0  0  0  0
    1.8285    2.0457   -2.0682 O   0  0  0  0  0  0  0  0  0  0  0  0
    0.4252    1.8130   -0.0820 C   0  0  2  0  0  0  0  0  0  0  0  0
    0.3400    3.2561    0.0625 O   0  0  0  0  0  0  0  0  0  0  0  0
    1.5826    1.3120    0.8428 C   0  0  1  0  0  0  0  0  0  0  0  0
    2.3366    2.4526    1.2974 O   0  0  0  0  0  0  0  0  0  0  0  0
    0.3385   -0.7380    1.7006 C   0  0  0  0  0  0  0  0  0  0  0  0
    1.1283    0.4576    2.0569 C   0  0  0  0  0  0  0  0  0  0  0  0
    1.5037    0.7693    3.3138 C   0  0  0  0  0  0  0  0  0  0  0  0
    1.1857    0.0980    4.5533 C   0  0  0  0  0  0  0  0  0  0  0  0
    0.0554    0.2761    5.2568 C   0  0  0  0  0  0  0  0  0  0  0  0
   -0.1241   -0.2828    6.5043 O   0  0  0  0  0  0  0  0  0  0  0  0
   -1.0645    1.0965    4.8297 C   0  0  0  0  0  0  0  0  0  0  0  0
   -0.9869    2.4320    5.1734 O   0  0  0  0  0  0  0  0  0  0  0  0
   -2.1368    0.6354    4.1701 C   0  0  0  0  0  0  0  0  0  0  0  0
   -1.0347   -0.5882    1.8484 O   0  0  0  0  0  0  0  0  0  0  0  0
   -1.6809   -1.3933    2.7668 C   0  0  0  0  0  0  0  0  0  0  0  0
   -1.8261   -2.7669    2.5470 C   0  0  0  0  0  0  0  0  0  0  0  0
   -2.5921   -3.5330    3.4219 C   0  0  0  0  0  0  0  0  0  0  0  0
   -2.7579   -4.8738    3.2281 O   0  0  0  0  0  0  0  0  0  0  0  0
   -3.2311   -2.9564    4.5098 C   0  0  0  0  0  0  0  0  0  0  0  0
   -3.0996   -1.5866    4.7220 C   0  0  0  0  0  0  0  0  0  0  0  0
   -3.7434   -1.0044    5.7824 O   0  0  0  0  0  0  0  0  0  0  0  0
   -2.3232   -0.7889    3.8623 C   0  0  0  0  0  0  0  0  0  0  0  0
    2.1150   -2.7310   -1.5465 H   0  0  0  0  0  0  0  0  0  0  0  0
   -0.4665   -0.3607   -1.4935 H   0  0  0  0  0  0  0  0  0  0  0  0
    0.0585   -1.0967   -3.8463 H   0  0  0  0  0  0  0  0  0  0  0  0
    0.8255    0.4787   -4.1354 H   0  0  0  0  0  0  0  0  0  0  0  0
   -3.7267    0.2527   -5.2210 H   0  0  0  0  0  0  0  0  0  0  0  0
   -3.1912    1.7570   -4.4340 H   0  0  0  0  0  0  0  0  0  0  0  0
   -4.3419    2.3656   -7.8157 H   0  0  0  0  0  0  0  0  0  0  0  0
   -0.1912    2.1339   -2.0978 H   0  0  0  0  0  0  0  0  0  0  0  0
    2.4840    1.3230   -2.0072 H   0  0  0  0  0  0  0  0  0  0  0  0
   -0.5440    1.4238    0.2428 H   0  0  0  0  0  0  0  0  0  0  0  0
    1.0274    3.6119   -0.5412 H   0  0  0  0  0  0  0  0  0  0  0  0
    2.3003    0.7288    0.2626 H   0  0  0  0  0  0  0  0  0  0  0  0
    1.6623    3.1521    1.4271 H   0  0  0  0  0  0  0  0  0  0  0  0
    2.1592    1.6266    3.4698 H   0  0  0  0  0  0  0  0  0  0  0  0
    1.9996   -0.4892    4.9695 H   0  0  0  0  0  0  0  0  0  0  0  0
    0.5931   -0.9168    6.6639 H   0  0  0  0  0  0  0  0  0  0  0  0
   -0.2766    2.5052    5.8339 H   0  0  0  0  0  0  0  0  0  0  0  0
   -2.9526    1.2996    3.9084 H   0  0  0  0  0  0  0  0  0  0  0  0
   -1.3720   -3.2407    1.6901 H   0  0  0  0  0  0  0  0  0  0  0  0
   -2.3532   -5.1198    2.3788 H   0  0  0  0  0  0  0  0  0  0  0  0
   -3.8304   -3.5780    5.1664 H   0  0  0  0  0  0  0  0  0  0  0  0
   -4.1406   -1.6975    6.3329 H   0  0  0  0  0  0  0  0  0  0  0  0
  1  2  2  0
  2  3  1  0
  3  4  1  0
  4  5  1  0
  5  6  1  0
  6  7  1  0
  7  8  1  0
  8  9  1  0
  9 10  1  0
 10 11  2  0
 10 12  1  0
 12 13  1  0
 13 14  2  0
 13 15  1  0
  7 16  1  0
 16 17  1  0
 16 18  1  0
 18 19  1  0
 18 20  1  0
 20 21  1  0
  3 22  2  3
 22 23  1  0
 23 24  2  3
 24 25  1  0
 25 26  2  3
 26 27  1  0
 26 28  1  0
 28 29  1  0
 28 30  2  3
 22 31  1  0
 31 32  1  0
 32 33  2  0
 33 34  1  0
 34 35  1  0
 34 36  2  0
 36 37  1  0
 37 38  1  0
 37 39  2  0
  5  2  1  0
 23 20  1  0
 39 30  1  0
 39 32  1  0
  5 40  1  6
  7 41  1  1
  8 42  1  0
  8 43  1  0
 12 44  1  0
 12 45  1  0
 15 46  1  0
 16 47  1  6
 17 48  1  0
 18 49  1  1
 19 50  1  0
 20 51  1  6
 21 52  1  0
 24 53  1  0
 25 54  1  0
 27 55  1  0
 29 56  1  0
 30 57  1  0
 33 58  1  0
 35 59  1  0
 36 60  1  0
 38 61  1  0
M  END
>  <clase>  (1) 
Flavonol

>  <carga>  (1) 
0

>  <InChIKey>  (1) 
SPHQJXJKURTGBW-AEZSFPNCSA-N

$$$$
