Quercetín-3-glucósido
     RDKit          3D

 53 56  0  0  0  0  0  0  0  0999 V2000
   -3.1167    0.3917    1.2643 O   0  0  0  0  0  0  0  0  0  0  0  0
   -2.2254   -0.1253    0.6277 C   0  0  0  0  0  0  0  0  0  0  0  0
   -0.7975    0.0631    0.3909 C   0  0  0  0  0  0  0  0  0  0  0  0
   -0.6571   -1.2193    0.2599 O   0  0  0  0  0  0  0  0  0  0  0  0
   -2.0085   -1.3184   -0.2860 C   0  0  2  0  0  0  0  0  0  0  0  0
   -2.0435   -1.0425   -1.7104 O   0  0  0  0  0  0  0  0  0  0  0  0
   -3.2374   -0.5015   -2.2789 C   0  0  2  0  0  0  0  0  0  0  0  0
   -3.1654   -0.8515   -3.7750 C   0  0  0  0  0  0  0  0  0  0  0  0
   -3.0952   -2.2678   -3.9335 O   0  0  0  0  0  0  0  0  0  0  0  0
   -3.4648    1.0318   -2.0869 C   0  0  1  0  0  0  0  0  0  0  0  0
   -4.3100    1.2728   -0.9599 O   0  0  0  0  0  0  0  0  0  0  0  0
   -2.2663    2.0344   -2.0729 C   0  0  2  0  0  0  0  0  0  0  0  0
   -1.1579    1.6204   -2.8807 O   0  0  0  0  0  0  0  0  0  0  0  0
   -1.7813    2.7420   -0.7331 C   0  0  1  0  0  0  0  0  0  0  0  0
   -2.6840    2.8254    0.3541 O   0  0  0  0  0  0  0  0  0  0  0  0
    0.0506    1.0810    0.1891 C   0  0  0  0  0  0  0  0  0  0  0  0
   -0.3455    2.4556   -0.2395 C   0  0  0  0  0  0  0  0  0  0  0  0
    0.5239    3.4890   -0.4114 C   0  0  0  0  0  0  0  0  0  0  0  0
    1.9606    3.3799   -0.3847 C   0  0  0  0  0  0  0  0  0  0  0  0
    2.6364    2.7374   -1.3552 C   0  0  0  0  0  0  0  0  0  0  0  0
    2.0960    2.4055   -2.5863 O   0  0  0  0  0  0  0  0  0  0  0  0
    3.9335    2.1316   -1.1619 C   0  0  0  0  0  0  0  0  0  0  0  0
    4.7594    2.1910   -2.2702 O   0  0  0  0  0  0  0  0  0  0  0  0
    4.2964    1.3733   -0.1146 C   0  0  0  0  0  0  0  0  0  0  0  0
    1.4146    0.7536    0.0929 O   0  0  0  0  0  0  0  0  0  0  0  0
    2.1923    0.7474    1.2505 C   0  0  0  0  0  0  0  0  0  0  0  0
    1.6423    0.4144    2.5006 C   0  0  0  0  0  0  0  0  0  0  0  0
    2.4342    0.4081    3.6427 C   0  0  0  0  0  0  0  0  0  0  0  0
    1.8436    0.0688    4.8246 O   0  0  0  0  0  0  0  0  0  0  0  0
    3.7759    0.7407    3.5776 C   0  0  0  0  0  0  0  0  0  0  0  0
    4.3305    1.0791    2.3447 C   0  0  0  0  0  0  0  0  0  0  0  0
    5.6553    1.4408    2.3910 O   0  0  0  0  0  0  0  0  0  0  0  0
    3.5730    1.0738    1.1508 C   0  0  0  0  0  0  0  0  0  0  0  0
   -2.5139   -2.2448   -0.0026 H   0  0  0  0  0  0  0  0  0  0  0  0
   -4.0790   -1.0571   -1.8450 H   0  0  0  0  0  0  0  0  0  0  0  0
   -2.2765   -0.4269   -4.2502 H   0  0  0  0  0  0  0  0  0  0  0  0
   -4.0535   -0.5019   -4.3097 H   0  0  0  0  0  0  0  0  0  0  0  0
   -2.3054   -2.5519   -3.4329 H   0  0  0  0  0  0  0  0  0  0  0  0
   -4.0884    1.3404   -2.9378 H   0  0  0  0  0  0  0  0  0  0  0  0
   -5.1547    0.8000   -1.0801 H   0  0  0  0  0  0  0  0  0  0  0  0
   -2.6818    2.8897   -2.6309 H   0  0  0  0  0  0  0  0  0  0  0  0
   -1.4270    1.6584   -3.8154 H   0  0  0  0  0  0  0  0  0  0  0  0
   -1.7610    3.7939   -1.0554 H   0  0  0  0  0  0  0  0  0  0  0  0
   -3.3601    2.1197    0.2655 H   0  0  0  0  0  0  0  0  0  0  0  0
    0.1754    4.4788   -0.7019 H   0  0  0  0  0  0  0  0  0  0  0  0
    2.4346    3.6457    0.5569 H   0  0  0  0  0  0  0  0  0  0  0  0
    1.1249    2.3849   -2.4859 H   0  0  0  0  0  0  0  0  0  0  0  0
    4.1670    2.4414   -3.0078 H   0  0  0  0  0  0  0  0  0  0  0  0
    5.2659    0.8812   -0.1902 H   0  0  0  0  0  0  0  0  0  0  0  0
    0.5992    0.1425    2.6141 H   0  0  0  0  0  0  0  0  0  0  0  0
    2.5122    0.1080    5.5287 H   0  0  0  0  0  0  0  0  0  0  0  0
    4.4018    0.7526    4.4637 H   0  0  0  0  0  0  0  0  0  0  0  0
    5.8703    1.9456    1.5881 H   0  0  0  0  0  0  0  0  0  0  0  0
  1  2  2  0
  2  3  1  0
  3  4  1  0
  4  5  1  0
  5  6  1  0
  6  7  1  0
  7  8  1  0
  8  9  1  0
  7 10  1  0
 10 11  1  0
 10 12  1  0
 12 13  1  0
 12 14  1  0
 14 15  1  0
  3 16  2  3
 16 17  1  0
 17 18  2  3
 18 19  1  0
 19 20  2  3
 20 21  1  0
 20 22  1  0
 22 23  1  0
 22 24  2  3
 16 25  1  0
 25 26  1  0
 26 27  2  0
 27 28  1  0
 28 29  1  0
 28 30  2  0
 30 31  1  0
 31 32  1  0
 31 33  2  0
  5  2  1  0
 17 14  1  0
 33 24  1  0
 33 26  1  0
  5 34  1  6
  7 35  1  1
  8 36  1  0
  8 37  1  0
  9 38  1  0
 10 39  1  6
 11 40  1  0
 12 41  1  6
 13 42  1  0
 14 43  1  6
 15 44  1  0
 18 45  1  0
 19 46  1  0
 21 47  1  0
 23 48  1  0
 24 49  1  0
 27 50  1  0
 29 51  1  0
 30 52  1  0
 32 53  1  0
M  END
>  <clase>  (1) 
Flavonol

>  <carga>  (1) 
0

>  <InChIKey>  (1) 
UGVVAABPZFPYRA-JUEKAOKDSA-N

$$$$
