Quercetín-3-galactosido
     RDKit          3D

 53 56  0  0  0  0  0  0  0  0999 V2000
   -2.0645    1.7891   -2.2957 O   0  0  0  0  0  0  0  0  0  0  0  0
   -1.8842    0.6231   -2.0149 C   0  0  0  0  0  0  0  0  0  0  0  0
   -1.4237   -0.1421   -0.8522 C   0  0  0  0  0  0  0  0  0  0  0  0
   -1.7398   -1.2705   -1.3961 O   0  0  0  0  0  0  0  0  0  0  0  0
   -1.8198   -0.7219   -2.7278 C   0  0  2  0  0  0  0  0  0  0  0  0
   -0.6661   -1.0034   -3.5610 O   0  0  0  0  0  0  0  0  0  0  0  0
    0.6572   -0.7395   -3.0485 C   0  0  2  0  0  0  0  0  0  0  0  0
    1.5001   -0.4061   -4.2977 C   0  0  0  0  0  0  0  0  0  0  0  0
    1.5941   -1.5278   -5.1711 O   0  0  0  0  0  0  0  0  0  0  0  0
    1.2871   -1.9400   -2.2727 C   0  0  2  0  0  0  0  0  0  0  0  0
    0.5340   -3.1426   -2.4393 O   0  0  0  0  0  0  0  0  0  0  0  0
    1.6143   -1.6650   -0.7691 C   0  0  2  0  0  0  0  0  0  0  0  0
    2.7837   -2.4790   -0.4446 O   0  0  0  0  0  0  0  0  0  0  0  0
    0.5067   -2.0433    0.2841 C   0  0  1  0  0  0  0  0  0  0  0  0
    1.0686   -2.9989    1.2158 O   0  0  0  0  0  0  0  0  0  0  0  0
   -0.7615    0.1872    0.2686 C   0  0  0  0  0  0  0  0  0  0  0  0
   -0.0647   -0.8379    1.0707 C   0  0  0  0  0  0  0  0  0  0  0  0
    0.1072   -0.7446    2.4111 C   0  0  0  0  0  0  0  0  0  0  0  0
   -0.3204    0.2841    3.3400 C   0  0  0  0  0  0  0  0  0  0  0  0
   -1.5561    0.7692    3.5246 C   0  0  0  0  0  0  0  0  0  0  0  0
   -1.7769    1.7176    4.5054 O   0  0  0  0  0  0  0  0  0  0  0  0
   -2.7384    0.3749    2.7866 C   0  0  0  0  0  0  0  0  0  0  0  0
   -3.3614   -0.7697    3.2432 O   0  0  0  0  0  0  0  0  0  0  0  0
   -3.2632    1.0487    1.7542 C   0  0  0  0  0  0  0  0  0  0  0  0
   -0.4503    1.4920    0.6292 O   0  0  0  0  0  0  0  0  0  0  0  0
   -1.4362    2.4609    0.6588 C   0  0  0  0  0  0  0  0  0  0  0  0
   -1.0119    3.7081    0.1751 C   0  0  0  0  0  0  0  0  0  0  0  0
   -1.8951    4.7803    0.1523 C   0  0  0  0  0  0  0  0  0  0  0  0
   -1.5206    6.0022   -0.3241 O   0  0  0  0  0  0  0  0  0  0  0  0
   -3.1943    4.6412    0.6170 C   0  0  0  0  0  0  0  0  0  0  0  0
   -3.6085    3.4088    1.1225 C   0  0  0  0  0  0  0  0  0  0  0  0
   -4.8896    3.2816    1.6000 O   0  0  0  0  0  0  0  0  0  0  0  0
   -2.7405    2.2997    1.1727 C   0  0  0  0  0  0  0  0  0  0  0  0
   -2.7509   -1.0055   -3.2282 H   0  0  0  0  0  0  0  0  0  0  0  0
    0.6692    0.1714   -2.4425 H   0  0  0  0  0  0  0  0  0  0  0  0
    2.5141   -0.1029   -4.0187 H   0  0  0  0  0  0  0  0  0  0  0  0
    1.0371    0.4095   -4.8632 H   0  0  0  0  0  0  0  0  0  0  0  0
    0.7016   -1.9285   -5.1920 H   0  0  0  0  0  0  0  0  0  0  0  0
    2.2552   -2.1522   -2.7451 H   0  0  0  0  0  0  0  0  0  0  0  0
    1.0284   -3.8578   -1.9968 H   0  0  0  0  0  0  0  0  0  0  0  0
    1.9379   -0.6257   -0.6412 H   0  0  0  0  0  0  0  0  0  0  0  0
    3.5456   -2.1037   -0.9243 H   0  0  0  0  0  0  0  0  0  0  0  0
   -0.3097   -2.5976   -0.1808 H   0  0  0  0  0  0  0  0  0  0  0  0
    1.9649   -3.1904    0.8670 H   0  0  0  0  0  0  0  0  0  0  0  0
    0.6776   -1.5231    2.9191 H   0  0  0  0  0  0  0  0  0  0  0  0
    0.4665    0.6485    3.9986 H   0  0  0  0  0  0  0  0  0  0  0  0
   -2.6966    2.0265    4.4022 H   0  0  0  0  0  0  0  0  0  0  0  0
   -2.7696   -1.1775    3.9011 H   0  0  0  0  0  0  0  0  0  0  0  0
   -4.1853    0.6850    1.3069 H   0  0  0  0  0  0  0  0  0  0  0  0
    0.0041    3.8161   -0.1905 H   0  0  0  0  0  0  0  0  0  0  0  0
   -0.6158    5.9369   -0.6722 H   0  0  0  0  0  0  0  0  0  0  0  0
   -3.8615    5.4961    0.5849 H   0  0  0  0  0  0  0  0  0  0  0  0
   -5.3654    4.1147    1.4467 H   0  0  0  0  0  0  0  0  0  0  0  0
  1  2  2  0
  2  3  1  0
  3  4  1  0
  4  5  1  0
  5  6  1  0
  6  7  1  0
  7  8  1  0
  8  9  1  0
  7 10  1  0
 10 11  1  0
 10 12  1  0
 12 13  1  0
 12 14  1  0
 14 15  1  0
  3 16  2  3
 16 17  1  0
 17 18  2  3
 18 19  1  0
 19 20  2  3
 20 21  1  0
 20 22  1  0
 22 23  1  0
 22 24  2  3
 16 25  1  0
 25 26  1  0
 26 27  2  0
 27 28  1  0
 28 29  1  0
 28 30  2  0
 30 31  1  0
 31 32  1  0
 31 33  2  0
  5  2  1  0
 17 14  1  0
 33 24  1  0
 33 26  1  0
  5 34  1  6
  7 35  1  1
  8 36  1  0
  8 37  1  0
  9 38  1  0
 10 39  1  6
 11 40  1  0
 12 41  1  6
 13 42  1  0
 14 43  1  6
 15 44  1  0
 18 45  1  0
 19 46  1  0
 21 47  1  0
 23 48  1  0
 24 49  1  0
 27 50  1  0
 29 51  1  0
 30 52  1  0
 32 53  1  0
M  END
>  <clase>  (1) 
Flavonol

>  <carga>  (1) 
0

>  <InChIKey>  (1) 
UGVVAABPZFPYRA-FMWYQGOYSA-N

$$$$
