Isorhamnetín-3-rutinosido
     RDKit          3D

 76 80  0  0  0  0  0  0  0  0999 V2000
   -0.8449    1.8929   -0.0784 O   0  0  0  0  0  0  0  0  0  0  0  0
   -1.6711    0.9938    0.0339 C   0  0  0  0  0  0  0  0  0  0  0  0
   -1.2507   -0.4138    0.2939 C   0  0  0  0  0  0  0  0  0  0  0  0
    0.0913   -0.7151    0.4519 O   0  0  0  0  0  0  0  0  0  0  0  0
    0.6773   -0.2207    1.6619 C   0  0  2  0  0  0  0  0  0  0  0  0
    1.7229    0.7159    1.3911 O   0  0  0  0  0  0  0  0  0  0  0  0
    3.0159    0.1660    1.1008 C   0  0  2  0  0  0  0  0  0  0  0  0
    3.0727   -0.7491   -0.1442 C   0  0  0  0  0  0  0  0  0  0  0  0
    2.3995   -0.2250   -1.2867 O   0  0  0  0  0  0  0  0  0  0  0  0
    3.1541    0.6796   -2.0812 C   0  0  2  0  0  0  0  0  0  0  0  0
    3.3483    1.9599   -1.4709 O   0  0  0  0  0  0  0  0  0  0  0  0
    2.1092    2.6329   -1.2136 C   0  0  1  0  0  0  0  0  0  0  0  0
    2.4341    3.9217   -0.4656 C   0  0  0  0  0  0  0  0  0  0  0  0
    1.3217    2.9161   -2.5019 C   0  0  2  0  0  0  0  0  0  0  0  0
    0.0161    3.4452   -2.2248 O   0  0  0  0  0  0  0  0  0  0  0  0
    1.1821    1.6611   -3.3811 C   0  0  2  0  0  0  0  0  0  0  0  0
    0.1143    0.8305   -2.9052 O   0  0  0  0  0  0  0  0  0  0  0  0
    2.5001    0.8789   -3.4705 C   0  0  1  0  0  0  0  0  0  0  0  0
    3.4135    1.5897   -4.3317 O   0  0  0  0  0  0  0  0  0  0  0  0
    3.5546   -0.5395    2.3629 C   0  0  1  0  0  0  0  0  0  0  0  0
    4.3573    0.3943    3.1120 O   0  0  0  0  0  0  0  0  0  0  0  0
    2.4221   -1.0492    3.2775 C   0  0  2  0  0  0  0  0  0  0  0  0
    2.8755   -2.1990    4.0106 O   0  0  0  0  0  0  0  0  0  0  0  0
    1.1777   -1.4336    2.4808 C   0  0  1  0  0  0  0  0  0  0  0  0
    0.1705   -1.9058    3.3966 O   0  0  0  0  0  0  0  0  0  0  0  0
   -2.1907   -1.3759    0.2497 C   0  0  0  0  0  0  0  0  0  0  0  0
   -1.8553   -2.8048    0.4084 C   0  0  0  0  0  0  0  0  0  0  0  0
   -2.5256   -3.5759    1.3706 C   0  0  0  0  0  0  0  0  0  0  0  0
   -2.1962   -4.9184    1.5501 C   0  0  0  0  0  0  0  0  0  0  0  0
   -1.2034   -5.4869    0.7615 C   0  0  0  0  0  0  0  0  0  0  0  0
   -0.8920   -6.8021    0.9694 O   0  0  0  0  0  0  0  0  0  0  0  0
   -0.5310   -4.7490   -0.2175 C   0  0  0  0  0  0  0  0  0  0  0  0
    0.4218   -5.4430   -0.9170 O   0  0  0  0  0  0  0  0  0  0  0  0
    1.1499   -4.7116   -1.8989 C   0  0  0  0  0  0  0  0  0  0  0  0
   -0.8694   -3.4079   -0.3960 C   0  0  0  0  0  0  0  0  0  0  0  0
   -3.5431   -1.1526    0.0837 O   0  0  0  0  0  0  0  0  0  0  0  0
   -3.9813    0.1353   -0.0839 C   0  0  0  0  0  0  0  0  0  0  0  0
   -5.3627    0.2961   -0.2306 C   0  0  0  0  0  0  0  0  0  0  0  0
   -5.8831    1.5719   -0.4080 C   0  0  0  0  0  0  0  0  0  0  0  0
   -7.2223    1.7822   -0.5554 O   0  0  0  0  0  0  0  0  0  0  0  0
   -5.0494    2.6839   -0.4448 C   0  0  0  0  0  0  0  0  0  0  0  0
   -3.6700    2.5158   -0.3033 C   0  0  0  0  0  0  0  0  0  0  0  0
   -2.8675    3.6198   -0.3445 O   0  0  0  0  0  0  0  0  0  0  0  0
   -3.1251    1.2366   -0.1169 C   0  0  0  0  0  0  0  0  0  0  0  0
   -0.0720    0.3191    2.2542 H   0  0  0  0  0  0  0  0  0  0  0  0
    3.6498    1.0344    0.8909 H   0  0  0  0  0  0  0  0  0  0  0  0
    2.5851   -1.7039    0.0692 H   0  0  0  0  0  0  0  0  0  0  0  0
    4.1132   -0.9929   -0.3919 H   0  0  0  0  0  0  0  0  0  0  0  0
    4.1540    0.2613   -2.2460 H   0  0  0  0  0  0  0  0  0  0  0  0
    1.5034    2.0208   -0.5502 H   0  0  0  0  0  0  0  0  0  0  0  0
    2.9889    3.6986    0.4522 H   0  0  0  0  0  0  0  0  0  0  0  0
    3.0755    4.5720   -1.0694 H   0  0  0  0  0  0  0  0  0  0  0  0
    1.5277    4.4721   -0.1980 H   0  0  0  0  0  0  0  0  0  0  0  0
    1.8647    3.6706   -3.0846 H   0  0  0  0  0  0  0  0  0  0  0  0
   -0.2904    3.0649   -1.3684 H   0  0  0  0  0  0  0  0  0  0  0  0
    0.8767    1.9822   -4.3853 H   0  0  0  0  0  0  0  0  0  0  0  0
   -0.6039    1.4544   -2.6841 H   0  0  0  0  0  0  0  0  0  0  0  0
    2.3100   -0.1010   -3.9239 H   0  0  0  0  0  0  0  0  0  0  0  0
    3.8233    2.2910   -3.7890 H   0  0  0  0  0  0  0  0  0  0  0  0
    4.2388   -1.3515    2.0934 H   0  0  0  0  0  0  0  0  0  0  0  0
    3.8058    1.1758    3.2968 H   0  0  0  0  0  0  0  0  0  0  0  0
    2.1664   -0.2970    4.0352 H   0  0  0  0  0  0  0  0  0  0  0  0
    2.0930   -2.5219    4.4997 H   0  0  0  0  0  0  0  0  0  0  0  0
    1.4060   -2.2903    1.8358 H   0  0  0  0  0  0  0  0  0  0  0  0
   -0.4563   -2.4396    2.8722 H   0  0  0  0  0  0  0  0  0  0  0  0
   -3.3019   -3.1356    1.9926 H   0  0  0  0  0  0  0  0  0  0  0  0
   -2.7076   -5.5190    2.2968 H   0  0  0  0  0  0  0  0  0  0  0  0
   -0.1845   -7.0027    0.3253 H   0  0  0  0  0  0  0  0  0  0  0  0
    1.7205   -3.8965   -1.4395 H   0  0  0  0  0  0  0  0  0  0  0  0
    0.4865   -4.3370   -2.6859 H   0  0  0  0  0  0  0  0  0  0  0  0
    1.8641   -5.3981   -2.3635 H   0  0  0  0  0  0  0  0  0  0  0  0
   -0.3771   -2.8036   -1.1539 H   0  0  0  0  0  0  0  0  0  0  0  0
   -6.0093   -0.5758   -0.2049 H   0  0  0  0  0  0  0  0  0  0  0  0
   -7.6852    0.9274   -0.5474 H   0  0  0  0  0  0  0  0  0  0  0  0
   -5.4887    3.6685   -0.5820 H   0  0  0  0  0  0  0  0  0  0  0  0
   -3.3864    4.4086   -0.5750 H   0  0  0  0  0  0  0  0  0  0  0  0
  1  2  2  0
  2  3  1  0
  3  4  1  0
  4  5  1  0
  5  6  1  0
  6  7  1  0
  7  8  1  0
  8  9  1  0
  9 10  1  0
 10 11  1  0
 11 12  1  0
 12 13  1  0
 12 14  1  0
 14 15  1  0
 14 16  1  0
 16 17  1  0
 16 18  1  0
 18 19  1  0
  7 20  1  0
 20 21  1  0
 20 22  1  0
 22 23  1  0
 22 24  1  0
 24 25  1  0
  3 26  2  0
 26 27  1  0
 27 28  1  0
 28 29  2  0
 29 30  1  0
 30 31  1  0
 30 32  2  0
 32 33  1  0
 33 34  1  0
 32 35  1  0
 26 36  1  0
 36 37  1  0
 37 38  2  0
 38 39  1  0
 39 40  1  0
 39 41  2  0
 41 42  1  0
 42 43  1  0
 42 44  2  0
 24  5  1  0
 18 10  1  0
 35 27  2  0
 44  2  1  0
 44 37  1  0
  5 45  1  1
  7 46  1  6
  8 47  1  0
  8 48  1  0
 10 49  1  6
 12 50  1  1
 13 51  1  0
 13 52  1  0
 13 53  1  0
 14 54  1  6
 15 55  1  0
 16 56  1  6
 17 57  1  0
 18 58  1  6
 19 59  1  0
 20 60  1  6
 21 61  1  0
 22 62  1  1
 23 63  1  0
 24 64  1  6
 25 65  1  0
 28 66  1  0
 29 67  1  0
 31 68  1  0
 34 69  1  0
 34 70  1  0
 34 71  1  0
 35 72  1  0
 38 73  1  0
 40 74  1  0
 41 75  1  0
 43 76  1  0
M  END
>  <clase>  (1) 
Flavonol

>  <carga>  (1) 
0

>  <InChIKey>  (1) 
UIDGLYUNOUKLBM-WDJQYGQPSA-N

>  <fuente>  (1) 
Ruiz 2024

$$$$
