Isorhamnetín-3-galactosido
     RDKit          3D

 56 59  0  0  0  0  0  0  0  0999 V2000
    0.2639    1.6947    3.2278 O   0  0  0  0  0  0  0  0  0  0  0  0
    0.9440    1.3866    2.2721 C   0  0  0  0  0  0  0  0  0  0  0  0
    0.7025    1.0785    0.8611 C   0  0  0  0  0  0  0  0  0  0  0  0
    1.9503    1.2344    0.5639 O   0  0  0  0  0  0  0  0  0  0  0  0
    2.3790    0.9947    1.9353 C   0  0  2  0  0  0  0  0  0  0  0  0
    2.8320   -0.3759    2.1659 O   0  0  0  0  0  0  0  0  0  0  0  0
    1.8774   -1.3608    2.6301 C   0  0  2  0  0  0  0  0  0  0  0  0
    2.6502   -2.3396    3.5327 C   0  0  0  0  0  0  0  0  0  0  0  0
    1.7841   -3.3320    4.0621 O   0  0  0  0  0  0  0  0  0  0  0  0
    1.2108   -2.1244    1.4490 C   0  0  2  0  0  0  0  0  0  0  0  0
    1.6188   -1.6111    0.1665 O   0  0  0  0  0  0  0  0  0  0  0  0
   -0.3381   -2.2994    1.4604 C   0  0  2  0  0  0  0  0  0  0  0  0
   -0.7335   -2.8293    0.1775 O   0  0  0  0  0  0  0  0  0  0  0  0
   -1.3171   -1.1452    1.8599 C   0  0  1  0  0  0  0  0  0  0  0  0
   -1.0873   -0.7832    3.2276 O   0  0  0  0  0  0  0  0  0  0  0  0
   -0.3816    0.6059    0.2261 C   0  0  0  0  0  0  0  0  0  0  0  0
   -1.5068    0.1232    1.0144 C   0  0  0  0  0  0  0  0  0  0  0  0
   -2.6775    0.7934    1.0981 C   0  0  0  0  0  0  0  0  0  0  0  0
   -3.0361    2.0172    0.4150 C   0  0  0  0  0  0  0  0  0  0  0  0
   -3.4658    2.0921   -0.8524 C   0  0  0  0  0  0  0  0  0  0  0  0
   -3.7840    3.3191   -1.4053 O   0  0  0  0  0  0  0  0  0  0  0  0
   -3.6320    0.9471   -1.7349 C   0  0  0  0  0  0  0  0  0  0  0  0
   -4.8235    0.2932   -1.5026 O   0  0  0  0  0  0  0  0  0  0  0  0
   -5.0498   -0.9288   -2.1926 C   0  0  0  0  0  0  0  0  0  0  0  0
   -2.7057    0.6095   -2.6517 C   0  0  0  0  0  0  0  0  0  0  0  0
   -0.3700    0.1571   -1.0943 O   0  0  0  0  0  0  0  0  0  0  0  0
   -0.3169    1.1148   -2.0857 C   0  0  0  0  0  0  0  0  0  0  0  0
    0.8853    1.7581   -2.3879 C   0  0  0  0  0  0  0  0  0  0  0  0
    0.9281    2.7069   -3.4044 C   0  0  0  0  0  0  0  0  0  0  0  0
    2.1232    3.3208   -3.6442 O   0  0  0  0  0  0  0  0  0  0  0  0
   -0.2054    3.0130   -4.1500 C   0  0  0  0  0  0  0  0  0  0  0  0
   -1.3916    2.3293   -3.8821 C   0  0  0  0  0  0  0  0  0  0  0  0
   -2.5186    2.6082   -4.6133 O   0  0  0  0  0  0  0  0  0  0  0  0
   -1.4577    1.3585   -2.8683 C   0  0  0  0  0  0  0  0  0  0  0  0
    3.1342    1.7214    2.2490 H   0  0  0  0  0  0  0  0  0  0  0  0
    1.1479   -0.8876    3.2814 H   0  0  0  0  0  0  0  0  0  0  0  0
    3.4576   -2.8278    2.9751 H   0  0  0  0  0  0  0  0  0  0  0  0
    3.1137   -1.7942    4.3625 H   0  0  0  0  0  0  0  0  0  0  0  0
    2.3083   -3.8772    4.6751 H   0  0  0  0  0  0  0  0  0  0  0  0
    1.6133   -3.1459    1.4294 H   0  0  0  0  0  0  0  0  0  0  0  0
    2.5144   -1.2398    0.2856 H   0  0  0  0  0  0  0  0  0  0  0  0
   -0.5303   -3.0974    2.1909 H   0  0  0  0  0  0  0  0  0  0  0  0
   -0.1614   -2.3590   -0.4671 H   0  0  0  0  0  0  0  0  0  0  0  0
   -2.3048   -1.6307    1.8620 H   0  0  0  0  0  0  0  0  0  0  0  0
   -1.2671    0.1705    3.3421 H   0  0  0  0  0  0  0  0  0  0  0  0
   -3.4609    0.4224    1.7591 H   0  0  0  0  0  0  0  0  0  0  0  0
   -2.9909    2.9268    1.0080 H   0  0  0  0  0  0  0  0  0  0  0  0
   -3.9798    3.1536   -2.3465 H   0  0  0  0  0  0  0  0  0  0  0  0
   -6.0069   -1.3348   -1.8520 H   0  0  0  0  0  0  0  0  0  0  0  0
   -5.1218   -0.7612   -3.2721 H   0  0  0  0  0  0  0  0  0  0  0  0
   -4.2711   -1.6626   -1.9596 H   0  0  0  0  0  0  0  0  0  0  0  0
   -2.8275   -0.2374   -3.3160 H   0  0  0  0  0  0  0  0  0  0  0  0
    1.7952    1.5174   -1.8505 H   0  0  0  0  0  0  0  0  0  0  0  0
    2.0130    3.9674   -4.3600 H   0  0  0  0  0  0  0  0  0  0  0  0
   -0.1627    3.7611   -4.9328 H   0  0  0  0  0  0  0  0  0  0  0  0
   -2.2956    3.2481   -5.3091 H   0  0  0  0  0  0  0  0  0  0  0  0
  1  2  2  0
  2  3  1  0
  3  4  1  0
  4  5  1  0
  5  6  1  0
  6  7  1  0
  7  8  1  0
  8  9  1  0
  7 10  1  0
 10 11  1  0
 10 12  1  0
 12 13  1  0
 12 14  1  0
 14 15  1  0
  3 16  2  3
 16 17  1  0
 17 18  2  3
 18 19  1  0
 19 20  2  3
 20 21  1  0
 20 22  1  0
 22 23  1  0
 23 24  1  0
 22 25  2  3
 16 26  1  0
 26 27  1  0
 27 28  2  0
 28 29  1  0
 29 30  1  0
 29 31  2  0
 31 32  1  0
 32 33  1  0
 32 34  2  0
  5  2  1  0
 17 14  1  0
 34 25  1  0
 34 27  1  0
  5 35  1  1
  7 36  1  1
  8 37  1  0
  8 38  1  0
  9 39  1  0
 10 40  1  6
 11 41  1  0
 12 42  1  1
 13 43  1  0
 14 44  1  1
 15 45  1  0
 18 46  1  0
 19 47  1  0
 21 48  1  0
 24 49  1  0
 24 50  1  0
 24 51  1  0
 25 52  1  0
 28 53  1  0
 30 54  1  0
 31 55  1  0
 33 56  1  0
M  END
>  <clase>  (1) 
Flavonol

>  <carga>  (1) 
0

>  <InChIKey>  (1) 
UMHINPBLAJFHOB-RSVWRCHESA-N

$$$$
