Procianidina B2
     RDKit          3D

 68 73  0  0  0  0  0  0  0  0999 V2000
   -2.5451    0.5265   -0.7160 O   0  0  0  0  0  0  0  0  0  0  0  0
   -1.1109    0.4525   -0.7805 C   0  0  1  0  0  0  0  0  0  0  0  0
   -0.6447    1.5115   -1.7997 C   0  0  2  0  0  0  0  0  0  0  0  0
    0.7623    1.2389   -2.3233 C   0  0  0  0  0  0  0  0  0  0  0  0
    1.8639    2.0439   -1.9785 C   0  0  0  0  0  0  0  0  0  0  0  0
    3.1501    1.7439   -2.4418 C   0  0  0  0  0  0  0  0  0  0  0  0
    3.3368    0.6314   -3.2497 C   0  0  0  0  0  0  0  0  0  0  0  0
    4.5668    0.2771   -3.7278 O   0  0  0  0  0  0  0  0  0  0  0  0
    2.2559   -0.1701   -3.5995 C   0  0  0  0  0  0  0  0  0  0  0  0
    2.4530   -1.2789   -4.3743 O   0  0  0  0  0  0  0  0  0  0  0  0
    0.9755    0.1272   -3.1574 C   0  0  0  0  0  0  0  0  0  0  0  0
   -0.7980    2.8634   -1.3501 O   0  0  0  0  0  0  0  0  0  0  0  0
   -0.9386    3.1046   -0.0087 C   0  0  0  0  0  0  0  0  0  0  0  0
   -1.2074    4.4497    0.2772 C   0  0  0  0  0  0  0  0  0  0  0  0
   -1.3016    4.8666    1.5926 C   0  0  0  0  0  0  0  0  0  0  0  0
   -1.5647    6.1633    1.9168 O   0  0  0  0  0  0  0  0  0  0  0  0
   -1.1079    3.9649    2.6237 C   0  0  0  0  0  0  0  0  0  0  0  0
   -0.8353    2.6235    2.3307 C   0  0  0  0  0  0  0  0  0  0  0  0
   -0.6141    1.7848    3.3878 O   0  0  0  0  0  0  0  0  0  0  0  0
   -0.7858    2.1424    1.0139 C   0  0  0  0  0  0  0  0  0  0  0  0
   -0.4416    0.7157    0.5922 C   0  0  1  0  0  0  0  0  0  0  0  0
   -0.5153   -0.5290    1.5706 C   0  0  2  0  0  0  0  0  0  0  0  0
    0.6183   -1.5522    1.1909 C   0  0  1  0  0  0  0  0  0  0  0  0
    1.5375   -1.6609    2.2975 O   0  0  0  0  0  0  0  0  0  0  0  0
    0.0983   -2.9554    0.8098 C   0  0  2  0  0  0  0  0  0  0  0  0
    1.1069   -3.7268   -0.0320 C   0  0  0  0  0  0  0  0  0  0  0  0
    1.8526   -4.7693    0.5522 C   0  0  0  0  0  0  0  0  0  0  0  0
    2.7839   -5.4916   -0.1974 C   0  0  0  0  0  0  0  0  0  0  0  0
    2.9774   -5.1662   -1.5297 C   0  0  0  0  0  0  0  0  0  0  0  0
    3.8875   -5.8705   -2.2652 O   0  0  0  0  0  0  0  0  0  0  0  0
    2.2622   -4.1295   -2.1215 C   0  0  0  0  0  0  0  0  0  0  0  0
    2.5222   -3.8550   -3.4358 O   0  0  0  0  0  0  0  0  0  0  0  0
    1.3245   -3.4118   -1.3868 C   0  0  0  0  0  0  0  0  0  0  0  0
   -1.1259   -2.8667    0.0723 O   0  0  0  0  0  0  0  0  0  0  0  0
   -2.1046   -2.3563    0.8840 C   0  0  0  0  0  0  0  0  0  0  0  0
   -3.3457   -2.9875    0.8407 C   0  0  0  0  0  0  0  0  0  0  0  0
   -4.3643   -2.5234    1.6553 C   0  0  0  0  0  0  0  0  0  0  0  0
   -5.5658   -3.1639    1.6054 O   0  0  0  0  0  0  0  0  0  0  0  0
   -4.1520   -1.4422    2.4998 C   0  0  0  0  0  0  0  0  0  0  0  0
   -2.9101   -0.7998    2.5092 C   0  0  0  0  0  0  0  0  0  0  0  0
   -2.8144    0.2380    3.3872 O   0  0  0  0  0  0  0  0  0  0  0  0
   -1.8624   -1.2240    1.6828 C   0  0  0  0  0  0  0  0  0  0  0  0
   -2.8952   -0.3150   -0.3808 H   0  0  0  0  0  0  0  0  0  0  0  0
   -0.8594   -0.5447   -1.1544 H   0  0  0  0  0  0  0  0  0  0  0  0
   -1.3095    1.4504   -2.6725 H   0  0  0  0  0  0  0  0  0  0  0  0
    1.7304    2.9153   -1.3395 H   0  0  0  0  0  0  0  0  0  0  0  0
    3.9793    2.3842   -2.1579 H   0  0  0  0  0  0  0  0  0  0  0  0
    5.2220    0.9027   -3.3718 H   0  0  0  0  0  0  0  0  0  0  0  0
    3.4028   -1.2259   -4.6206 H   0  0  0  0  0  0  0  0  0  0  0  0
    0.1474   -0.5086   -3.4611 H   0  0  0  0  0  0  0  0  0  0  0  0
   -1.3287    5.1495   -0.5441 H   0  0  0  0  0  0  0  0  0  0  0  0
   -1.7354    6.6584    1.0975 H   0  0  0  0  0  0  0  0  0  0  0  0
   -1.1745    4.3206    3.6475 H   0  0  0  0  0  0  0  0  0  0  0  0
   -0.4367    2.3297    4.1783 H   0  0  0  0  0  0  0  0  0  0  0  0
    0.6384    0.8239    0.4117 H   0  0  0  0  0  0  0  0  0  0  0  0
   -0.2446   -0.2102    2.5768 H   0  0  0  0  0  0  0  0  0  0  0  0
    1.2182   -1.1531    0.3658 H   0  0  0  0  0  0  0  0  0  0  0  0
    1.0492   -2.0075    3.0654 H   0  0  0  0  0  0  0  0  0  0  0  0
   -0.0850   -3.5477    1.7197 H   0  0  0  0  0  0  0  0  0  0  0  0
    1.7130   -5.0293    1.5994 H   0  0  0  0  0  0  0  0  0  0  0  0
    3.3531   -6.2979    0.2545 H   0  0  0  0  0  0  0  0  0  0  0  0
    3.8257   -5.4771   -3.1588 H   0  0  0  0  0  0  0  0  0  0  0  0
    2.1314   -2.9836   -3.6572 H   0  0  0  0  0  0  0  0  0  0  0  0
    0.7533   -2.6190   -1.8580 H   0  0  0  0  0  0  0  0  0  0  0  0
   -3.5089   -3.8429    0.1916 H   0  0  0  0  0  0  0  0  0  0  0  0
   -6.1809   -2.7206    2.2138 H   0  0  0  0  0  0  0  0  0  0  0  0
   -4.9382   -1.0769    3.1540 H   0  0  0  0  0  0  0  0  0  0  0  0
   -1.9676    0.7058    3.2627 H   0  0  0  0  0  0  0  0  0  0  0  0
  1  2  1  0
  2  3  1  0
  3  4  1  0
  4  5  1  0
  5  6  2  0
  6  7  1  0
  7  8  1  0
  7  9  2  0
  9 10  1  0
  9 11  1  0
  3 12  1  0
 12 13  1  0
 13 14  2  0
 14 15  1  0
 15 16  1  0
 15 17  2  0
 17 18  1  0
 18 19  1  0
 18 20  2  0
 20 21  1  0
 21 22  1  0
 22 23  1  0
 23 24  1  0
 23 25  1  0
 25 26  1  0
 26 27  1  0
 27 28  2  0
 28 29  1  0
 29 30  1  0
 29 31  2  0
 31 32  1  0
 31 33  1  0
 25 34  1  0
 34 35  1  0
 35 36  2  0
 36 37  1  0
 37 38  1  0
 37 39  2  0
 39 40  1  0
 40 41  1  0
 40 42  2  0
 21  2  1  0
 42 22  1  0
 11  4  2  0
 20 13  1  0
 33 26  2  0
 42 35  1  0
  1 43  1  0
  2 44  1  6
  3 45  1  6
  5 46  1  0
  6 47  1  0
  8 48  1  0
 10 49  1  0
 11 50  1  0
 14 51  1  0
 16 52  1  0
 17 53  1  0
 19 54  1  0
 21 55  1  6
 22 56  1  1
 23 57  1  6
 24 58  1  0
 25 59  1  1
 27 60  1  0
 28 61  1  0
 30 62  1  0
 32 63  1  0
 33 64  1  0
 36 65  1  0
 38 66  1  0
 39 67  1  0
 41 68  1  0
M  END
>  <clase>  (1) 
Tanino Condensado

>  <carga>  (1) 
0

>  <InChIKey>  (1) 
UPSCCKSYXWBZPX-KWKLTRBOSA-N

>  <parte_planta>  (1) 
fruto|hojas|tallo

$$$$
