Procianidina B1
     RDKit          3D

 68 73  0  0  0  0  0  0  0  0999 V2000
   -1.0803   -0.0483   -1.8038 O   0  0  0  0  0  0  0  0  0  0  0  0
   -0.8159    1.1191   -1.0402 C   0  0  2  0  0  0  0  0  0  0  0  0
    0.1781    2.0511   -1.7737 C   0  0  2  0  0  0  0  0  0  0  0  0
    1.5611    1.4600   -2.0733 C   0  0  0  0  0  0  0  0  0  0  0  0
    2.7373    1.9655   -1.4828 C   0  0  0  0  0  0  0  0  0  0  0  0
    3.9904    1.4033   -1.7548 C   0  0  0  0  0  0  0  0  0  0  0  0
    4.0763    0.3304   -2.6293 C   0  0  0  0  0  0  0  0  0  0  0  0
    5.2697   -0.2644   -2.9323 O   0  0  0  0  0  0  0  0  0  0  0  0
    2.9292   -0.1729   -3.2313 C   0  0  0  0  0  0  0  0  0  0  0  0
    3.0212   -1.2278   -4.0944 O   0  0  0  0  0  0  0  0  0  0  0  0
    1.6830    0.3811   -2.9676 C   0  0  0  0  0  0  0  0  0  0  0  0
    0.2797    3.3191   -1.1175 O   0  0  0  0  0  0  0  0  0  0  0  0
    0.1261    3.3498    0.2463 C   0  0  0  0  0  0  0  0  0  0  0  0
    0.3321    4.6292    0.7813 C   0  0  0  0  0  0  0  0  0  0  0  0
    0.2249    4.8372    2.1431 C   0  0  0  0  0  0  0  0  0  0  0  0
    0.4497    6.0912    2.6244 O   0  0  0  0  0  0  0  0  0  0  0  0
   -0.1167    3.7883    2.9758 C   0  0  0  0  0  0  0  0  0  0  0  0
   -0.3474    2.5190    2.4315 C   0  0  0  0  0  0  0  0  0  0  0  0
   -0.7843    1.6049    3.3445 O   0  0  0  0  0  0  0  0  0  0  0  0
   -0.2085    2.2410    1.0611 C   0  0  0  0  0  0  0  0  0  0  0  0
   -0.2843    0.8504    0.3910 C   0  0  1  0  0  0  0  0  0  0  0  0
   -0.9267   -0.3906    1.1342 C   0  0  2  0  0  0  0  0  0  0  0  0
   -0.0968   -1.7016    1.0599 C   0  0  2  0  0  0  0  0  0  0  0  0
    1.3007   -1.4387    1.2360 O   0  0  0  0  0  0  0  0  0  0  0  0
   -0.3867   -2.4809   -0.2304 C   0  0  1  0  0  0  0  0  0  0  0  0
    0.3291   -3.8304   -0.2333 C   0  0  0  0  0  0  0  0  0  0  0  0
    1.5351   -3.9805   -0.9461 C   0  0  0  0  0  0  0  0  0  0  0  0
    2.2190   -5.1999   -0.9546 C   0  0  0  0  0  0  0  0  0  0  0  0
    1.6974   -6.2726   -0.2435 C   0  0  0  0  0  0  0  0  0  0  0  0
    2.3205   -7.4903   -0.2127 O   0  0  0  0  0  0  0  0  0  0  0  0
    0.5095   -6.1340    0.4695 C   0  0  0  0  0  0  0  0  0  0  0  0
    0.0084   -7.1957    1.1684 O   0  0  0  0  0  0  0  0  0  0  0  0
   -0.1771   -4.9280    0.4830 C   0  0  0  0  0  0  0  0  0  0  0  0
   -1.7845   -2.7494   -0.4238 O   0  0  0  0  0  0  0  0  0  0  0  0
   -2.6881   -1.8356    0.0419 C   0  0  0  0  0  0  0  0  0  0  0  0
   -4.0166   -2.1293   -0.2816 C   0  0  0  0  0  0  0  0  0  0  0  0
   -5.0334   -1.2890    0.1498 C   0  0  0  0  0  0  0  0  0  0  0  0
   -6.3400   -1.5407   -0.1479 O   0  0  0  0  0  0  0  0  0  0  0  0
   -4.7481   -0.1648    0.9103 C   0  0  0  0  0  0  0  0  0  0  0  0
   -3.4222    0.1190    1.2367 C   0  0  0  0  0  0  0  0  0  0  0  0
   -3.1467    1.2074    2.0203 O   0  0  0  0  0  0  0  0  0  0  0  0
   -2.3688   -0.6986    0.7999 C   0  0  0  0  0  0  0  0  0  0  0  0
   -1.6618    0.2011   -2.5434 H   0  0  0  0  0  0  0  0  0  0  0  0
   -1.7773    1.6456   -0.9495 H   0  0  0  0  0  0  0  0  0  0  0  0
   -0.2525    2.2756   -2.7593 H   0  0  0  0  0  0  0  0  0  0  0  0
    2.6935    2.8066   -0.7939 H   0  0  0  0  0  0  0  0  0  0  0  0
    4.8713    1.8168   -1.2749 H   0  0  0  0  0  0  0  0  0  0  0  0
    5.9637    0.1848   -2.4195 H   0  0  0  0  0  0  0  0  0  0  0  0
    3.9778   -1.4282   -4.1270 H   0  0  0  0  0  0  0  0  0  0  0  0
    0.8123   -0.0421   -3.4601 H   0  0  0  0  0  0  0  0  0  0  0  0
    0.5894    5.4581    0.1271 H   0  0  0  0  0  0  0  0  0  0  0  0
    0.3782    6.0697    3.5932 H   0  0  0  0  0  0  0  0  0  0  0  0
   -0.2306    3.9338    4.0455 H   0  0  0  0  0  0  0  0  0  0  0  0
   -1.6859    1.3632    3.0369 H   0  0  0  0  0  0  0  0  0  0  0  0
    0.7757    0.5892    0.2990 H   0  0  0  0  0  0  0  0  0  0  0  0
   -0.8906   -0.2122    2.2050 H   0  0  0  0  0  0  0  0  0  0  0  0
   -0.3999   -2.3336    1.9083 H   0  0  0  0  0  0  0  0  0  0  0  0
    1.4140   -1.0668    2.1287 H   0  0  0  0  0  0  0  0  0  0  0  0
   -0.0157   -1.9364   -1.1022 H   0  0  0  0  0  0  0  0  0  0  0  0
    1.9500   -3.1354   -1.4952 H   0  0  0  0  0  0  0  0  0  0  0  0
    3.1450   -5.2831   -1.5134 H   0  0  0  0  0  0  0  0  0  0  0  0
    3.1234   -7.4248   -0.7575 H   0  0  0  0  0  0  0  0  0  0  0  0
    0.6516   -7.9139    1.0060 H   0  0  0  0  0  0  0  0  0  0  0  0
   -1.1032   -4.8470    1.0450 H   0  0  0  0  0  0  0  0  0  0  0  0
   -4.2304   -3.0174   -0.8689 H   0  0  0  0  0  0  0  0  0  0  0  0
   -6.3874   -2.3710   -0.6522 H   0  0  0  0  0  0  0  0  0  0  0  0
   -5.5664    0.4635    1.2471 H   0  0  0  0  0  0  0  0  0  0  0  0
   -3.9712    1.7197    2.1195 H   0  0  0  0  0  0  0  0  0  0  0  0
  1  2  1  0
  2  3  1  0
  3  4  1  0
  4  5  1  0
  5  6  2  0
  6  7  1  0
  7  8  1  0
  7  9  2  0
  9 10  1  0
  9 11  1  0
  3 12  1  0
 12 13  1  0
 13 14  2  0
 14 15  1  0
 15 16  1  0
 15 17  2  0
 17 18  1  0
 18 19  1  0
 18 20  2  0
 20 21  1  0
 21 22  1  0
 22 23  1  0
 23 24  1  0
 23 25  1  0
 25 26  1  0
 26 27  1  0
 27 28  2  0
 28 29  1  0
 29 30  1  0
 29 31  2  0
 31 32  1  0
 31 33  1  0
 25 34  1  0
 34 35  1  0
 35 36  2  0
 36 37  1  0
 37 38  1  0
 37 39  2  0
 39 40  1  0
 40 41  1  0
 40 42  2  0
 21  2  1  0
 42 22  1  0
 11  4  2  0
 20 13  1  0
 33 26  2  0
 42 35  1  0
  1 43  1  0
  2 44  1  1
  3 45  1  6
  5 46  1  0
  6 47  1  0
  8 48  1  0
 10 49  1  0
 11 50  1  0
 14 51  1  0
 16 52  1  0
 17 53  1  0
 19 54  1  0
 21 55  1  6
 22 56  1  1
 23 57  1  1
 24 58  1  0
 25 59  1  6
 27 60  1  0
 28 61  1  0
 30 62  1  0
 32 63  1  0
 33 64  1  0
 36 65  1  0
 38 66  1  0
 39 67  1  0
 41 68  1  0
M  END
>  <clase>  (1) 
Tanino Condensado

>  <carga>  (1) 
0

>  <InChIKey>  (1) 
UPSCCKSYXWBZPX-FSIJYMTBSA-N

>  <parte_planta>  (1) 
fruto|tallo

$$$$
