Procianidina B1
     RDKit          3D

 68 73  0  0  0  0  0  0  0  0999 V2000
   -1.7556    1.6034   -3.1940 O   0  0  0  0  0  0  0  0  0  0  0  0
   -1.9901    0.6996   -2.0977 C   0  0  2  0  0  0  0  0  0  0  0  0
   -3.4240    0.7459   -1.5362 C   0  0  2  0  0  0  0  0  0  0  0  0
   -4.0474    2.0625   -1.0748 C   0  0  0  0  0  0  0  0  0  0  0  0
   -3.4229    3.3149   -1.2080 C   0  0  0  0  0  0  0  0  0  0  0  0
   -4.0503    4.4900   -0.7732 C   0  0  0  0  0  0  0  0  0  0  0  0
   -5.3162    4.4188   -0.2102 C   0  0  0  0  0  0  0  0  0  0  0  0
   -5.9765    5.5311    0.2321 O   0  0  0  0  0  0  0  0  0  0  0  0
   -5.9548    3.1916   -0.0837 C   0  0  0  0  0  0  0  0  0  0  0  0
   -7.2035    3.1249    0.4650 O   0  0  0  0  0  0  0  0  0  0  0  0
   -5.3382    2.0234   -0.5102 C   0  0  0  0  0  0  0  0  0  0  0  0
   -3.5425   -0.2690   -0.5163 O   0  0  0  0  0  0  0  0  0  0  0  0
   -2.6595   -0.0869    0.5200 C   0  0  0  0  0  0  0  0  0  0  0  0
   -3.1074   -0.5256    1.7684 C   0  0  0  0  0  0  0  0  0  0  0  0
   -2.3412   -0.2623    2.8948 C   0  0  0  0  0  0  0  0  0  0  0  0
   -2.7420   -0.6574    4.1368 O   0  0  0  0  0  0  0  0  0  0  0  0
   -1.1524    0.4456    2.7919 C   0  0  0  0  0  0  0  0  0  0  0  0
   -0.7104    0.8572    1.5344 C   0  0  0  0  0  0  0  0  0  0  0  0
    0.4300    1.5993    1.4326 O   0  0  0  0  0  0  0  0  0  0  0  0
   -1.4132    0.5388    0.3652 C   0  0  0  0  0  0  0  0  0  0  0  0
   -0.9126    0.9325   -1.0116 C   0  0  1  0  0  0  0  0  0  0  0  0
    0.4405    0.3244   -1.5624 C   0  0  2  0  0  0  0  0  0  0  0  0
    0.7467   -1.1513   -1.2379 C   0  0  2  0  0  0  0  0  0  0  0  0
   -0.4593   -1.9196   -1.2075 O   0  0  0  0  0  0  0  0  0  0  0  0
    1.5816   -1.2647    0.0508 C   0  0  1  0  0  0  0  0  0  0  0  0
    1.9473   -2.7167    0.3433 C   0  0  0  0  0  0  0  0  0  0  0  0
    1.2774   -3.4177    1.3657 C   0  0  0  0  0  0  0  0  0  0  0  0
    1.5767   -4.7572    1.6337 C   0  0  0  0  0  0  0  0  0  0  0  0
    2.5452   -5.3993    0.8734 C   0  0  0  0  0  0  0  0  0  0  0  0
    2.8806   -6.7080    1.0854 O   0  0  0  0  0  0  0  0  0  0  0  0
    3.2094   -4.7169   -0.1419 C   0  0  0  0  0  0  0  0  0  0  0  0
    4.1552   -5.3593   -0.8885 O   0  0  0  0  0  0  0  0  0  0  0  0
    2.9232   -3.3861   -0.4126 C   0  0  0  0  0  0  0  0  0  0  0  0
    2.8031   -0.5213   -0.0151 O   0  0  0  0  0  0  0  0  0  0  0  0
    2.7315    0.7259   -0.5729 C   0  0  0  0  0  0  0  0  0  0  0  0
    3.8654    1.5176   -0.3718 C   0  0  0  0  0  0  0  0  0  0  0  0
    3.9320    2.7880   -0.9255 C   0  0  0  0  0  0  0  0  0  0  0  0
    5.0542    3.5285   -0.6963 O   0  0  0  0  0  0  0  0  0  0  0  0
    2.8887    3.2762   -1.6990 C   0  0  0  0  0  0  0  0  0  0  0  0
    1.7632    2.4800   -1.9122 C   0  0  0  0  0  0  0  0  0  0  0  0
    0.8124    3.0324   -2.7309 O   0  0  0  0  0  0  0  0  0  0  0  0
    1.6530    1.2000   -1.3355 C   0  0  0  0  0  0  0  0  0  0  0  0
   -2.4788    1.4676   -3.8350 H   0  0  0  0  0  0  0  0  0  0  0  0
   -1.8611   -0.3092   -2.5105 H   0  0  0  0  0  0  0  0  0  0  0  0
   -4.0753    0.4184   -2.3593 H   0  0  0  0  0  0  0  0  0  0  0  0
   -2.4340    3.4103   -1.6488 H   0  0  0  0  0  0  0  0  0  0  0  0
   -3.5328    5.4376   -0.8855 H   0  0  0  0  0  0  0  0  0  0  0  0
   -5.3927    6.2979    0.1000 H   0  0  0  0  0  0  0  0  0  0  0  0
   -7.4188    4.0523    0.6889 H   0  0  0  0  0  0  0  0  0  0  0  0
   -5.8628    1.0778   -0.3943 H   0  0  0  0  0  0  0  0  0  0  0  0
   -4.0653   -1.0300    1.8407 H   0  0  0  0  0  0  0  0  0  0  0  0
   -3.6264   -1.0545    4.0630 H   0  0  0  0  0  0  0  0  0  0  0  0
   -0.5920    0.6744    3.6925 H   0  0  0  0  0  0  0  0  0  0  0  0
    0.7944    1.7650    2.3181 H   0  0  0  0  0  0  0  0  0  0  0  0
   -0.7833    2.0203   -0.9452 H   0  0  0  0  0  0  0  0  0  0  0  0
    0.3462    0.3157   -2.6599 H   0  0  0  0  0  0  0  0  0  0  0  0
    1.3453   -1.5466   -2.0715 H   0  0  0  0  0  0  0  0  0  0  0  0
   -0.2050   -2.8502   -1.0656 H   0  0  0  0  0  0  0  0  0  0  0  0
    1.0247   -0.9073    0.9168 H   0  0  0  0  0  0  0  0  0  0  0  0
    0.5139   -2.9180    1.9613 H   0  0  0  0  0  0  0  0  0  0  0  0
    1.0475   -5.2714    2.4295 H   0  0  0  0  0  0  0  0  0  0  0  0
    2.3633   -7.0334    1.8421 H   0  0  0  0  0  0  0  0  0  0  0  0
    4.1961   -6.2597   -0.5093 H   0  0  0  0  0  0  0  0  0  0  0  0
    3.4652   -2.8738   -1.2038 H   0  0  0  0  0  0  0  0  0  0  0  0
    4.6971    1.1384    0.2153 H   0  0  0  0  0  0  0  0  0  0  0  0
    4.9608    4.3775   -1.1592 H   0  0  0  0  0  0  0  0  0  0  0  0
    2.9341    4.2605   -2.1531 H   0  0  0  0  0  0  0  0  0  0  0  0
    0.0846    2.4091   -2.9181 H   0  0  0  0  0  0  0  0  0  0  0  0
  1  2  1  0
  2  3  1  0
  3  4  1  0
  4  5  1  0
  5  6  2  0
  6  7  1  0
  7  8  1  0
  7  9  2  0
  9 10  1  0
  9 11  1  0
  3 12  1  0
 12 13  1  0
 13 14  2  0
 14 15  1  0
 15 16  1  0
 15 17  2  0
 17 18  1  0
 18 19  1  0
 18 20  2  0
 20 21  1  0
 21 22  1  0
 22 23  1  0
 23 24  1  0
 23 25  1  0
 25 26  1  0
 26 27  1  0
 27 28  2  0
 28 29  1  0
 29 30  1  0
 29 31  2  0
 31 32  1  0
 31 33  1  0
 25 34  1  0
 34 35  1  0
 35 36  2  0
 36 37  1  0
 37 38  1  0
 37 39  2  0
 39 40  1  0
 40 41  1  0
 40 42  2  0
 21  2  1  0
 42 22  1  0
 11  4  2  0
 20 13  1  0
 33 26  2  0
 42 35  1  0
  1 43  1  0
  2 44  1  6
  3 45  1  6
  5 46  1  0
  6 47  1  0
  8 48  1  0
 10 49  1  0
 11 50  1  0
 14 51  1  0
 16 52  1  0
 17 53  1  0
 19 54  1  0
 21 55  1  1
 22 56  1  6
 23 57  1  6
 24 58  1  0
 25 59  1  1
 27 60  1  0
 28 61  1  0
 30 62  1  0
 32 63  1  0
 33 64  1  0
 36 65  1  0
 38 66  1  0
 39 67  1  0
 41 68  1  0
M  END
>  <clase>  (1) 
Tanino Condensado

>  <carga>  (1) 
0

>  <InChIKey>  (1) 
UPSCCKSYXWBZPX-FSIJYMTBSA-N

$$$$
