Procianidina B2
     RDKit          3D

 68 73  0  0  0  0  0  0  0  0999 V2000
   -0.4487    3.0907   -1.8543 O   0  0  0  0  0  0  0  0  0  0  0  0
   -0.8167    2.5159   -0.5870 C   0  0  1  0  0  0  0  0  0  0  0  0
   -2.1911    1.8092   -0.6070 C   0  0  2  0  0  0  0  0  0  0  0  0
   -3.2988    2.8024   -0.9333 C   0  0  0  0  0  0  0  0  0  0  0  0
   -3.7956    3.6881    0.0431 C   0  0  0  0  0  0  0  0  0  0  0  0
   -4.7927    4.6179   -0.2691 C   0  0  0  0  0  0  0  0  0  0  0  0
   -5.2905    4.6666   -1.5643 C   0  0  0  0  0  0  0  0  0  0  0  0
   -6.2626    5.5540   -1.9334 O   0  0  0  0  0  0  0  0  0  0  0  0
   -4.8027    3.7993   -2.5373 C   0  0  0  0  0  0  0  0  0  0  0  0
   -5.2915    3.8585   -3.8106 O   0  0  0  0  0  0  0  0  0  0  0  0
   -3.8168    2.8697   -2.2364 C   0  0  0  0  0  0  0  0  0  0  0  0
   -2.5361    1.1733    0.6350 O   0  0  0  0  0  0  0  0  0  0  0  0
   -1.5185    0.7695    1.4543 C   0  0  0  0  0  0  0  0  0  0  0  0
   -1.9201    0.1909    2.6606 C   0  0  0  0  0  0  0  0  0  0  0  0
   -0.9608   -0.2024    3.5867 C   0  0  0  0  0  0  0  0  0  0  0  0
   -1.3102   -0.7740    4.7742 O   0  0  0  0  0  0  0  0  0  0  0  0
    0.3908   -0.0117    3.3362 C   0  0  0  0  0  0  0  0  0  0  0  0
    0.7824    0.5491    2.1239 C   0  0  0  0  0  0  0  0  0  0  0  0
    2.1053    0.7624    1.8664 O   0  0  0  0  0  0  0  0  0  0  0  0
   -0.1583    0.9244    1.1573 C   0  0  0  0  0  0  0  0  0  0  0  0
    0.2638    1.4987   -0.1707 C   0  0  1  0  0  0  0  0  0  0  0  0
    0.5589    0.4666   -1.3214 C   0  0  2  0  0  0  0  0  0  0  0  0
    0.0078   -0.9680   -1.1606 C   0  0  1  0  0  0  0  0  0  0  0  0
   -0.5412   -1.3808   -2.4443 O   0  0  0  0  0  0  0  0  0  0  0  0
    1.0460   -2.0376   -0.7220 C   0  0  2  0  0  0  0  0  0  0  0  0
    0.4280   -3.0225    0.2723 C   0  0  0  0  0  0  0  0  0  0  0  0
    0.9044   -3.1521    1.5897 C   0  0  0  0  0  0  0  0  0  0  0  0
    0.3043   -4.0385    2.4885 C   0  0  0  0  0  0  0  0  0  0  0  0
   -0.7695   -4.8058    2.0689 C   0  0  0  0  0  0  0  0  0  0  0  0
   -1.3594   -5.6695    2.9467 O   0  0  0  0  0  0  0  0  0  0  0  0
   -1.2488   -4.7038    0.7675 C   0  0  0  0  0  0  0  0  0  0  0  0
   -2.3126   -5.4891    0.4169 O   0  0  0  0  0  0  0  0  0  0  0  0
   -0.6582   -3.8238   -0.1334 C   0  0  0  0  0  0  0  0  0  0  0  0
    2.2643   -1.4972   -0.1982 O   0  0  0  0  0  0  0  0  0  0  0  0
    2.8195   -0.5724   -1.0392 C   0  0  0  0  0  0  0  0  0  0  0  0
    4.1975   -0.6213   -1.2293 C   0  0  0  0  0  0  0  0  0  0  0  0
    4.8021    0.3210   -2.0505 C   0  0  0  0  0  0  0  0  0  0  0  0
    6.1512    0.2353   -2.2338 O   0  0  0  0  0  0  0  0  0  0  0  0
    4.0520    1.3229   -2.6576 C   0  0  0  0  0  0  0  0  0  0  0  0
    2.6782    1.3852   -2.4269 C   0  0  0  0  0  0  0  0  0  0  0  0
    2.0187    2.4272   -3.0181 O   0  0  0  0  0  0  0  0  0  0  0  0
    2.0395    0.4290   -1.6266 C   0  0  0  0  0  0  0  0  0  0  0  0
   -1.1139    3.7803   -2.0527 H   0  0  0  0  0  0  0  0  0  0  0  0
   -0.8270    3.3359    0.1449 H   0  0  0  0  0  0  0  0  0  0  0  0
   -2.2063    1.0302   -1.3793 H   0  0  0  0  0  0  0  0  0  0  0  0
   -3.4093    3.6496    1.0610 H   0  0  0  0  0  0  0  0  0  0  0  0
   -5.1605    5.2837    0.5050 H   0  0  0  0  0  0  0  0  0  0  0  0
   -6.5189    6.0672   -1.1477 H   0  0  0  0  0  0  0  0  0  0  0  0
   -5.9706    4.5621   -3.7807 H   0  0  0  0  0  0  0  0  0  0  0  0
   -3.4593    2.2049   -3.0192 H   0  0  0  0  0  0  0  0  0  0  0  0
   -2.9791    0.0664    2.8641 H   0  0  0  0  0  0  0  0  0  0  0  0
   -2.2564   -0.9952    4.7459 H   0  0  0  0  0  0  0  0  0  0  0  0
    1.1167   -0.3070    4.0865 H   0  0  0  0  0  0  0  0  0  0  0  0
    2.6399    0.3149    2.5435 H   0  0  0  0  0  0  0  0  0  0  0  0
    1.1644    2.1099   -0.0131 H   0  0  0  0  0  0  0  0  0  0  0  0
    0.0920    0.8403   -2.2417 H   0  0  0  0  0  0  0  0  0  0  0  0
   -0.8675   -0.9746   -0.5086 H   0  0  0  0  0  0  0  0  0  0  0  0
    0.1736   -1.3026   -3.1042 H   0  0  0  0  0  0  0  0  0  0  0  0
    1.3324   -2.6521   -1.5894 H   0  0  0  0  0  0  0  0  0  0  0  0
    1.7468   -2.5565    1.9338 H   0  0  0  0  0  0  0  0  0  0  0  0
    0.6720   -4.1244    3.5063 H   0  0  0  0  0  0  0  0  0  0  0  0
   -2.0664   -6.0984    2.4248 H   0  0  0  0  0  0  0  0  0  0  0  0
   -2.5367   -5.2933   -0.5095 H   0  0  0  0  0  0  0  0  0  0  0  0
   -1.0365   -3.7413   -1.1493 H   0  0  0  0  0  0  0  0  0  0  0  0
    4.7928   -1.3907   -0.7479 H   0  0  0  0  0  0  0  0  0  0  0  0
    6.4307    0.9666   -2.8095 H   0  0  0  0  0  0  0  0  0  0  0  0
    4.5164    2.0717   -3.2910 H   0  0  0  0  0  0  0  0  0  0  0  0
    1.1592    2.5964   -2.5781 H   0  0  0  0  0  0  0  0  0  0  0  0
  1  2  1  0
  2  3  1  0
  3  4  1  0
  4  5  1  0
  5  6  2  0
  6  7  1  0
  7  8  1  0
  7  9  2  0
  9 10  1  0
  9 11  1  0
  3 12  1  0
 12 13  1  0
 13 14  2  0
 14 15  1  0
 15 16  1  0
 15 17  2  0
 17 18  1  0
 18 19  1  0
 18 20  2  0
 20 21  1  0
 21 22  1  0
 22 23  1  0
 23 24  1  0
 23 25  1  0
 25 26  1  0
 26 27  1  0
 27 28  2  0
 28 29  1  0
 29 30  1  0
 29 31  2  0
 31 32  1  0
 31 33  1  0
 25 34  1  0
 34 35  1  0
 35 36  2  0
 36 37  1  0
 37 38  1  0
 37 39  2  0
 39 40  1  0
 40 41  1  0
 40 42  2  0
 21  2  1  0
 42 22  1  0
 11  4  2  0
 20 13  1  0
 33 26  2  0
 42 35  1  0
  1 43  1  0
  2 44  1  1
  3 45  1  6
  5 46  1  0
  6 47  1  0
  8 48  1  0
 10 49  1  0
 11 50  1  0
 14 51  1  0
 16 52  1  0
 17 53  1  0
 19 54  1  0
 21 55  1  1
 22 56  1  6
 23 57  1  1
 24 58  1  0
 25 59  1  6
 27 60  1  0
 28 61  1  0
 30 62  1  0
 32 63  1  0
 33 64  1  0
 36 65  1  0
 38 66  1  0
 39 67  1  0
 41 68  1  0
M  END
>  <clase>  (1) 
Tanino Condensado

>  <carga>  (1) 
0

>  <InChIKey>  (1) 
UPSCCKSYXWBZPX-KWKLTRBOSA-N

$$$$
