Cianidín-3-rutinosido
     RDKit          3D

 73 77  0  0  0  0  0  0  0  0999 V2000
    0.0823    2.7070    4.9803 O   0  0  0  0  0  0  0  0  0  0  0  0
    0.6428    1.8232    4.1107 C   0  0  0  0  0  0  0  0  0  0  0  0
    1.9348    1.9892    3.6286 C   0  0  0  0  0  0  0  0  0  0  0  0
    2.4466    1.0443    2.7386 C   0  0  0  0  0  0  0  0  0  0  0  0
    3.7124    1.1934    2.2402 O   0  0  0  0  0  0  0  0  0  0  0  0
    1.6849   -0.0671    2.3214 C   0  0  0  0  0  0  0  0  0  0  0  0
    2.1504   -1.0326    1.4225 C   0  0  0  0  0  0  0  0  0  0  0  0
    1.3503   -2.1056    1.0374 C   0  0  0  0  0  0  0  0  0  0  0  0
    1.8435   -3.0056    0.1224 O   0  0  0  0  0  0  0  0  0  0  0  0
    1.9614   -2.4949   -1.2405 C   0  0  2  0  0  0  0  0  0  0  0  0
    2.9891   -1.5111   -1.3128 O   0  0  0  0  0  0  0  0  0  0  0  0
    2.9699   -0.6110   -2.4324 C   0  0  2  0  0  0  0  0  0  0  0  0
    2.6184    0.7979   -1.9219 C   0  0  0  0  0  0  0  0  0  0  0  0
    1.2817    0.8267   -1.4255 O   0  0  0  0  0  0  0  0  0  0  0  0
    0.9572    2.0217   -0.7145 C   0  0  2  0  0  0  0  0  0  0  0  0
   -0.1536    1.7382    0.1603 O   0  0  0  0  0  0  0  0  0  0  0  0
   -1.3834    1.5124   -0.5434 C   0  0  1  0  0  0  0  0  0  0  0  0
   -2.4540    1.2172    0.5036 C   0  0  0  0  0  0  0  0  0  0  0  0
   -1.7744    2.7152   -1.4194 C   0  0  2  0  0  0  0  0  0  0  0  0
   -2.9295    2.4223   -2.2138 O   0  0  0  0  0  0  0  0  0  0  0  0
   -0.6339    3.0600   -2.3852 C   0  0  2  0  0  0  0  0  0  0  0  0
   -0.5124    2.0255   -3.3761 O   0  0  0  0  0  0  0  0  0  0  0  0
    0.6835    3.2382   -1.6324 C   0  0  1  0  0  0  0  0  0  0  0  0
    0.6395    4.4343   -0.8413 O   0  0  0  0  0  0  0  0  0  0  0  0
    2.1190   -1.0624   -3.6347 C   0  0  1  0  0  0  0  0  0  0  0  0
    2.8585   -2.1127   -4.2858 O   0  0  0  0  0  0  0  0  0  0  0  0
    0.7411   -1.6289   -3.2688 C   0  0  2  0  0  0  0  0  0  0  0  0
   -0.3269   -0.7360   -3.6085 O   0  0  0  0  0  0  0  0  0  0  0  0
    0.6047   -2.0244   -1.7994 C   0  0  1  0  0  0  0  0  0  0  0  0
   -0.4052   -3.0351   -1.6542 O   0  0  0  0  0  0  0  0  0  0  0  0
    0.0902   -2.2999    1.6320 C   0  0  0  0  0  0  0  0  0  0  0  0
   -0.4562   -1.2810    2.4798 O   0  0  0  0  0  0  0  0  0  0  0  0
    0.3875   -0.1965    2.8307 C   0  0  0  0  0  0  0  0  0  0  0  0
   -0.1303    0.7389    3.7205 C   0  0  0  0  0  0  0  0  0  0  0  0
   -0.8100   -3.4602    1.4778 C   0  0  0  0  0  0  0  0  0  0  0  0
   -2.1938   -3.2811    1.7131 C   0  0  0  0  0  0  0  0  0  0  0  0
   -3.1022   -4.3365    1.5986 C   0  0  0  0  0  0  0  0  0  0  0  0
   -2.6351   -5.5911    1.2523 C   0  0  0  0  0  0  0  0  0  0  0  0
   -3.5220   -6.6201    1.1401 O   0  0  0  0  0  0  0  0  0  0  0  0
   -1.2808   -5.8048    1.0253 C   0  0  0  0  0  0  0  0  0  0  0  0
   -0.8917   -7.0719    0.6917 O   0  0  0  0  0  0  0  0  0  0  0  0
   -0.3677   -4.7579    1.1433 C   0  0  0  0  0  0  0  0  0  0  0  0
    0.6931    3.4404    5.1753 H   0  0  0  0  0  0  0  0  0  0  0  0
    2.5314    2.8436    3.9366 H   0  0  0  0  0  0  0  0  0  0  0  0
    4.1567    1.9579    2.6509 H   0  0  0  0  0  0  0  0  0  0  0  0
    3.1602   -0.9439    1.0204 H   0  0  0  0  0  0  0  0  0  0  0  0
    2.2973   -3.3628   -1.8204 H   0  0  0  0  0  0  0  0  0  0  0  0
    4.0151   -0.5618   -2.7642 H   0  0  0  0  0  0  0  0  0  0  0  0
    2.7272    1.5240   -2.7333 H   0  0  0  0  0  0  0  0  0  0  0  0
    3.3071    1.0606   -1.1101 H   0  0  0  0  0  0  0  0  0  0  0  0
    1.7829    2.2708   -0.0382 H   0  0  0  0  0  0  0  0  0  0  0  0
   -1.2861    0.6123   -1.1612 H   0  0  0  0  0  0  0  0  0  0  0  0
   -2.1609    0.3585    1.1158 H   0  0  0  0  0  0  0  0  0  0  0  0
   -3.4207    0.9919    0.0444 H   0  0  0  0  0  0  0  0  0  0  0  0
   -2.5762    2.0644    1.1874 H   0  0  0  0  0  0  0  0  0  0  0  0
   -1.9879    3.5910   -0.7943 H   0  0  0  0  0  0  0  0  0  0  0  0
   -3.7166    2.5229   -1.6473 H   0  0  0  0  0  0  0  0  0  0  0  0
   -0.8896    3.9796   -2.9251 H   0  0  0  0  0  0  0  0  0  0  0  0
   -1.4278    1.9163   -3.7218 H   0  0  0  0  0  0  0  0  0  0  0  0
    1.5037    3.3479   -2.3492 H   0  0  0  0  0  0  0  0  0  0  0  0
    0.6089    5.1932   -1.4535 H   0  0  0  0  0  0  0  0  0  0  0  0
    2.0352   -0.2448   -4.3599 H   0  0  0  0  0  0  0  0  0  0  0  0
    2.4675   -2.2469   -5.1702 H   0  0  0  0  0  0  0  0  0  0  0  0
    0.5502   -2.5199   -3.8806 H   0  0  0  0  0  0  0  0  0  0  0  0
   -0.0889    0.1767   -3.3325 H   0  0  0  0  0  0  0  0  0  0  0  0
    0.2218   -1.1864   -1.2174 H   0  0  0  0  0  0  0  0  0  0  0  0
   -1.1418   -2.7815   -2.2480 H   0  0  0  0  0  0  0  0  0  0  0  0
   -1.1394    0.6096    4.0964 H   0  0  0  0  0  0  0  0  0  0  0  0
   -2.5800   -2.3007    1.9939 H   0  0  0  0  0  0  0  0  0  0  0  0
   -4.1624   -4.1819    1.7801 H   0  0  0  0  0  0  0  0  0  0  0  0
   -2.9826   -7.3995    0.8974 H   0  0  0  0  0  0  0  0  0  0  0  0
    0.0578   -7.0762    0.4812 H   0  0  0  0  0  0  0  0  0  0  0  0
    0.6857   -4.9645    0.9783 H   0  0  0  0  0  0  0  0  0  0  0  0
  1  2  1  0
  2  3  2  0
  3  4  1  0
  4  5  1  0
  4  6  2  0
  6  7  1  0
  7  8  2  0
  8  9  1  0
  9 10  1  0
 10 11  1  0
 11 12  1  0
 12 13  1  0
 13 14  1  0
 14 15  1  0
 15 16  1  0
 16 17  1  0
 17 18  1  0
 17 19  1  0
 19 20  1  0
 19 21  1  0
 21 22  1  0
 21 23  1  0
 23 24  1  0
 12 25  1  0
 25 26  1  0
 25 27  1  0
 27 28  1  0
 27 29  1  0
 29 30  1  0
  8 31  1  0
 31 32  2  0
 32 33  1  0
 33 34  2  0
 31 35  1  0
 35 36  1  0
 36 37  2  0
 37 38  1  0
 38 39  1  0
 38 40  2  0
 40 41  1  0
 40 42  1  0
 29 10  1  0
 23 15  1  0
 42 35  2  0
 34  2  1  0
 33  6  1  0
  1 43  1  0
  3 44  1  0
  5 45  1  0
  7 46  1  0
 10 47  1  6
 12 48  1  6
 13 49  1  0
 13 50  1  0
 15 51  1  1
 17 52  1  6
 18 53  1  0
 18 54  1  0
 18 55  1  0
 19 56  1  1
 20 57  1  0
 21 58  1  6
 22 59  1  0
 23 60  1  6
 24 61  1  0
 25 62  1  6
 26 63  1  0
 27 64  1  6
 28 65  1  0
 29 66  1  1
 30 67  1  0
 34 68  1  0
 36 69  1  0
 37 70  1  0
 39 71  1  0
 41 72  1  0
 42 73  1  0
M  CHG  1  32   1
M  END
>  <clase>  (1) 
Antocianina

>  <carga>  (1) 
1

>  <InChIKey>  (1) 
USNPULRDBDVJAO-ACXVBFAASA-O

>  <fuente>  (1) 
Ruiz 2024

$$$$
