Ácido Vanílico
     RDKit          3D

 20 20  0  0  0  0  0  0  0  0999 V2000
    1.1266    3.6200    0.0096 O   0  0  0  0  0  0  0  0  0  0  0  0
    0.8965    2.4586    0.6458 C   0  0  0  0  0  0  0  0  0  0  0  0
    0.9552    2.3781    1.8589 O   0  0  0  0  0  0  0  0  0  0  0  0
    0.5778    1.3446   -0.2802 C   0  0  0  0  0  0  0  0  0  0  0  0
    0.5318    1.5276   -1.6694 C   0  0  0  0  0  0  0  0  0  0  0  0
    0.2280    0.4519   -2.5025 C   0  0  0  0  0  0  0  0  0  0  0  0
   -0.0262   -0.7928   -1.9396 C   0  0  0  0  0  0  0  0  0  0  0  0
   -0.3219   -1.8311   -2.7802 O   0  0  0  0  0  0  0  0  0  0  0  0
    0.0143   -0.9980   -0.5549 C   0  0  0  0  0  0  0  0  0  0  0  0
   -0.2588   -2.2798   -0.1518 O   0  0  0  0  0  0  0  0  0  0  0  0
   -0.2272   -2.5279    1.2499 C   0  0  0  0  0  0  0  0  0  0  0  0
    0.3185    0.0799    0.2758 C   0  0  0  0  0  0  0  0  0  0  0  0
    1.3203    4.2532    0.7323 H   0  0  0  0  0  0  0  0  0  0  0  0
    0.7305    2.5010   -2.1111 H   0  0  0  0  0  0  0  0  0  0  0  0
    0.1892    0.5807   -3.5803 H   0  0  0  0  0  0  0  0  0  0  0  0
   -0.4637   -2.6001   -2.1942 H   0  0  0  0  0  0  0  0  0  0  0  0
   -0.9857   -1.9356    1.7723 H   0  0  0  0  0  0  0  0  0  0  0  0
   -0.4635   -3.5847    1.4068 H   0  0  0  0  0  0  0  0  0  0  0  0
    0.7715   -2.3452    1.6602 H   0  0  0  0  0  0  0  0  0  0  0  0
    0.3617   -0.0301    1.3552 H   0  0  0  0  0  0  0  0  0  0  0  0
  1  2  1  0
  2  3  2  0
  2  4  1  0
  4  5  1  0
  5  6  2  0
  6  7  1  0
  7  8  1  0
  7  9  2  0
  9 10  1  0
 10 11  1  0
  9 12  1  0
 12  4  2  0
  1 13  1  0
  5 14  1  0
  6 15  1  0
  8 16  1  0
 11 17  1  0
 11 18  1  0
 11 19  1  0
 12 20  1  0
M  END
>  <clase>  (1) 
Ác. Hidroxibenzoico

>  <carga>  (1) 
0

>  <InChIKey>  (1) 
WKOLLVMJNQIZCI-UHFFFAOYSA-N

>  <parte_planta>  (1) 
tallo

$$$$
