Ácido Vanílico
     RDKit          3D

 20 20  0  0  0  0  0  0  0  0999 V2000
    2.1741   -0.4658    1.5601 O   0  0  0  0  0  0  0  0  0  0  0  0
    1.2282   -0.7648    0.6532 C   0  0  0  0  0  0  0  0  0  0  0  0
    1.4907   -1.4039   -0.3490 O   0  0  0  0  0  0  0  0  0  0  0  0
   -0.1099   -0.2389    1.0175 C   0  0  0  0  0  0  0  0  0  0  0  0
   -0.3224    0.4901    2.1960 C   0  0  0  0  0  0  0  0  0  0  0  0
   -1.5975    0.9657    2.4988 C   0  0  0  0  0  0  0  0  0  0  0  0
   -2.6445    0.7081    1.6223 C   0  0  0  0  0  0  0  0  0  0  0  0
   -3.8855    1.1865    1.9439 O   0  0  0  0  0  0  0  0  0  0  0  0
   -2.4547   -0.0177    0.4399 C   0  0  0  0  0  0  0  0  0  0  0  0
   -3.5825   -0.1895   -0.3208 O   0  0  0  0  0  0  0  0  0  0  0  0
   -3.4295   -0.9229   -1.5315 C   0  0  0  0  0  0  0  0  0  0  0  0
   -1.1783   -0.4920    0.1398 C   0  0  0  0  0  0  0  0  0  0  0  0
    2.9898   -0.8686    1.1952 H   0  0  0  0  0  0  0  0  0  0  0  0
    0.4960    0.6923    2.8827 H   0  0  0  0  0  0  0  0  0  0  0  0
   -1.7751    1.5316    3.4087 H   0  0  0  0  0  0  0  0  0  0  0  0
   -4.4655    0.9014    1.2110 H   0  0  0  0  0  0  0  0  0  0  0  0
   -3.1048   -1.9495   -1.3322 H   0  0  0  0  0  0  0  0  0  0  0  0
   -2.7423   -0.4149   -2.2161 H   0  0  0  0  0  0  0  0  0  0  0  0
   -4.4086   -0.9717   -2.0177 H   0  0  0  0  0  0  0  0  0  0  0  0
   -0.9820   -1.0595   -0.7649 H   0  0  0  0  0  0  0  0  0  0  0  0
  1  2  1  0
  2  3  2  0
  2  4  1  0
  4  5  1  0
  5  6  2  0
  6  7  1  0
  7  8  1  0
  7  9  2  0
  9 10  1  0
 10 11  1  0
  9 12  1  0
 12  4  2  0
  1 13  1  0
  5 14  1  0
  6 15  1  0
  8 16  1  0
 11 17  1  0
 11 18  1  0
 11 19  1  0
 12 20  1  0
M  END
>  <clase>  (1) 
Ác. Hidroxibenzoico

>  <carga>  (1) 
0

>  <InChIKey>  (1) 
WKOLLVMJNQIZCI-UHFFFAOYSA-N

$$$$
