Petunidín-3-rutinosido
     RDKit          3D

 77 81  0  0  0  0  0  0  0  0999 V2000
    0.7533   -4.6775   -2.1857 O   0  0  0  0  0  0  0  0  0  0  0  0
    1.0599   -3.3270   -2.2583 C   0  0  0  0  0  0  0  0  0  0  0  0
    0.6550   -2.5782   -3.3022 C   0  0  0  0  0  0  0  0  0  0  0  0
    0.9430   -1.1653   -3.4126 C   0  0  0  0  0  0  0  0  0  0  0  0
    1.6041   -0.8856   -4.5818 O   0  0  0  0  0  0  0  0  0  0  0  0
    0.6837   -0.2700   -2.4349 C   0  0  0  0  0  0  0  0  0  0  0  0
   -0.1626   -0.5602   -1.2653 C   0  0  0  0  0  0  0  0  0  0  0  0
    0.0331   -1.3895   -0.2224 C   0  0  0  0  0  0  0  0  0  0  0  0
    0.9705   -2.3742   -0.0253 O   0  0  0  0  0  0  0  0  0  0  0  0
    1.8658   -2.7971   -1.0712 C   0  0  2  0  0  0  0  0  0  0  0  0
    2.8588   -1.8360   -1.4697 O   0  0  0  0  0  0  0  0  0  0  0  0
    3.1176   -0.7892   -0.5335 C   0  0  2  0  0  0  0  0  0  0  0  0
    3.3790    0.5128   -1.3017 C   0  0  0  0  0  0  0  0  0  0  0  0
    2.1506    1.2893   -1.2530 O   0  0  0  0  0  0  0  0  0  0  0  0
    1.2695    1.1447   -2.3824 C   0  0  2  0  0  0  0  0  0  0  0  0
    0.1274    1.9911   -2.1762 O   0  0  0  0  0  0  0  0  0  0  0  0
    0.3843    3.3219   -1.7397 C   0  0  1  0  0  0  0  0  0  0  0  0
    0.5660    4.2229   -2.9571 C   0  0  0  0  0  0  0  0  0  0  0  0
   -0.8262    3.7519   -0.8778 C   0  0  2  0  0  0  0  0  0  0  0  0
   -0.5905    5.0117   -0.2420 O   0  0  0  0  0  0  0  0  0  0  0  0
   -1.2164    2.7366    0.2373 C   0  0  2  0  0  0  0  0  0  0  0  0
   -2.4113    3.2418    0.8857 O   0  0  0  0  0  0  0  0  0  0  0  0
   -0.1364    2.5085    1.3267 C   0  0  1  0  0  0  0  0  0  0  0  0
   -0.6493    2.9445    2.6087 O   0  0  0  0  0  0  0  0  0  0  0  0
    4.0954   -1.1947    0.5667 C   0  0  1  0  0  0  0  0  0  0  0  0
    5.4408   -1.0023    0.1225 O   0  0  0  0  0  0  0  0  0  0  0  0
    3.8839   -0.4076    1.8884 C   0  0  2  0  0  0  0  0  0  0  0  0
    4.6814   -1.0714    2.8927 O   0  0  0  0  0  0  0  0  0  0  0  0
    2.4038   -0.3083    2.4090 C   0  0  1  0  0  0  0  0  0  0  0  0
    2.4559   -0.0733    3.8181 O   0  0  0  0  0  0  0  0  0  0  0  0
   -0.7625   -1.0194    1.0042 C   0  0  0  0  0  0  0  0  0  0  0  0
   -0.5939    0.0453    1.7526 O   0  0  0  0  0  0  0  0  0  0  0  0
    0.3788    1.0613    1.5058 C   0  0  0  0  0  0  0  0  0  0  0  0
    1.6632    0.8779    1.8708 C   0  0  0  0  0  0  0  0  0  0  0  0
   -1.8189   -2.0084    1.4045 C   0  0  0  0  0  0  0  0  0  0  0  0
   -2.1520   -3.1319    0.6378 C   0  0  0  0  0  0  0  0  0  0  0  0
   -3.1566   -3.9755    1.0867 C   0  0  0  0  0  0  0  0  0  0  0  0
   -3.4831   -5.0659    0.3357 O   0  0  0  0  0  0  0  0  0  0  0  0
   -3.8261   -3.7199    2.2774 C   0  0  0  0  0  0  0  0  0  0  0  0
   -4.8074   -4.5948    2.6614 O   0  0  0  0  0  0  0  0  0  0  0  0
   -3.5088   -2.6059    3.0553 C   0  0  0  0  0  0  0  0  0  0  0  0
   -4.2443   -2.4722    4.2011 O   0  0  0  0  0  0  0  0  0  0  0  0
   -3.9518   -1.3550    5.0347 C   0  0  0  0  0  0  0  0  0  0  0  0
   -2.5012   -1.7469    2.6120 C   0  0  0  0  0  0  0  0  0  0  0  0
    0.3543   -4.9651   -3.0275 H   0  0  0  0  0  0  0  0  0  0  0  0
    0.1245   -3.0190   -4.1413 H   0  0  0  0  0  0  0  0  0  0  0  0
    1.5213    0.0508   -4.8186 H   0  0  0  0  0  0  0  0  0  0  0  0
   -1.0191    0.1110   -1.2324 H   0  0  0  0  0  0  0  0  0  0  0  0
    2.4335   -3.6369   -0.6539 H   0  0  0  0  0  0  0  0  0  0  0  0
    2.2037   -0.5919   -0.0126 H   0  0  0  0  0  0  0  0  0  0  0  0
    3.6963    0.3563   -2.3378 H   0  0  0  0  0  0  0  0  0  0  0  0
    4.1265    1.1236   -0.7876 H   0  0  0  0  0  0  0  0  0  0  0  0
    1.7849    1.4514   -3.2969 H   0  0  0  0  0  0  0  0  0  0  0  0
    1.2891    3.3955   -1.1277 H   0  0  0  0  0  0  0  0  0  0  0  0
    1.4121    3.8834   -3.5638 H   0  0  0  0  0  0  0  0  0  0  0  0
    0.7500    5.2612   -2.6668 H   0  0  0  0  0  0  0  0  0  0  0  0
   -0.3175    4.1891   -3.6039 H   0  0  0  0  0  0  0  0  0  0  0  0
   -1.7094    3.8787   -1.5179 H   0  0  0  0  0  0  0  0  0  0  0  0
   -0.6424    5.7125   -0.9202 H   0  0  0  0  0  0  0  0  0  0  0  0
   -1.5163    1.7947   -0.2157 H   0  0  0  0  0  0  0  0  0  0  0  0
   -2.3037    4.2187    0.9202 H   0  0  0  0  0  0  0  0  0  0  0  0
    0.7218    3.1574    1.1209 H   0  0  0  0  0  0  0  0  0  0  0  0
   -1.6262    2.9592    2.5168 H   0  0  0  0  0  0  0  0  0  0  0  0
    3.9943   -2.2672    0.7732 H   0  0  0  0  0  0  0  0  0  0  0  0
    6.0165   -1.3727    0.8212 H   0  0  0  0  0  0  0  0  0  0  0  0
    4.3197    0.5945    1.7829 H   0  0  0  0  0  0  0  0  0  0  0  0
    4.9657   -0.3869    3.5303 H   0  0  0  0  0  0  0  0  0  0  0  0
    1.8682   -1.2497    2.2622 H   0  0  0  0  0  0  0  0  0  0  0  0
    2.9382   -0.8318    4.2051 H   0  0  0  0  0  0  0  0  0  0  0  0
    2.2814    1.7771    1.8698 H   0  0  0  0  0  0  0  0  0  0  0  0
   -1.6613   -3.3810   -0.2988 H   0  0  0  0  0  0  0  0  0  0  0  0
   -4.1964   -5.5180    0.8346 H   0  0  0  0  0  0  0  0  0  0  0  0
   -5.1509   -4.2480    3.5104 H   0  0  0  0  0  0  0  0  0  0  0  0
   -4.1460   -0.4131    4.5113 H   0  0  0  0  0  0  0  0  0  0  0  0
   -2.9214   -1.3982    5.4025 H   0  0  0  0  0  0  0  0  0  0  0  0
   -4.6187   -1.4006    5.9008 H   0  0  0  0  0  0  0  0  0  0  0  0
   -2.2271   -0.8662    3.1884 H   0  0  0  0  0  0  0  0  0  0  0  0
  1  2  1  0
  2  3  2  3
  3  4  1  0
  4  5  1  0
  4  6  2  3
  6  7  1  0
  7  8  2  3
  8  9  1  0
  9 10  1  0
 10 11  1  0
 11 12  1  0
 12 13  1  0
 13 14  1  0
 14 15  1  0
 15 16  1  0
 16 17  1  0
 17 18  1  0
 17 19  1  0
 19 20  1  0
 19 21  1  0
 21 22  1  0
 21 23  1  0
 23 24  1  0
 12 25  1  0
 25 26  1  0
 25 27  1  0
 27 28  1  0
 27 29  1  0
 29 30  1  0
  8 31  1  0
 31 32  2  3
 32 33  1  0
 33 34  2  3
 31 35  1  0
 35 36  1  0
 36 37  2  0
 37 38  1  0
 37 39  1  0
 39 40  1  0
 39 41  2  0
 41 42  1  0
 42 43  1  0
 41 44  1  0
 10  2  1  0
 34 29  1  0
 44 35  2  0
 15  6  1  0
 33 23  1  0
  1 45  1  0
  3 46  1  0
  5 47  1  0
  7 48  1  0
 10 49  1  1
 12 50  1  1
 13 51  1  0
 13 52  1  0
 15 53  1  6
 17 54  1  1
 18 55  1  0
 18 56  1  0
 18 57  1  0
 19 58  1  6
 20 59  1  0
 21 60  1  6
 22 61  1  0
 23 62  1  6
 24 63  1  0
 25 64  1  1
 26 65  1  0
 27 66  1  6
 28 67  1  0
 29 68  1  1
 30 69  1  0
 34 70  1  0
 36 71  1  0
 38 72  1  0
 40 73  1  0
 43 74  1  0
 43 75  1  0
 43 76  1  0
 44 77  1  0
M  CHG  1  32   1
M  END
>  <clase>  (1) 
Antocianina

>  <carga>  (1) 
1

>  <InChIKey>  (1) 
WYSAENFSIDPOSW-LMKGEBTQSA-O

$$$$
