Delfinidin-3-rutinosido
     RDKit          3D

 74 78  0  0  0  0  0  0  0  0999 V2000
   -1.4641    2.8412    3.9916 O   0  0  0  0  0  0  0  0  0  0  0  0
   -1.9845    2.3021    2.8259 C   0  0  0  0  0  0  0  0  0  0  0  0
   -2.6445    3.0687    1.9367 C   0  0  0  0  0  0  0  0  0  0  0  0
   -3.1617    2.5297    0.6997 C   0  0  0  0  0  0  0  0  0  0  0  0
   -4.5251    2.6393    0.5447 O   0  0  0  0  0  0  0  0  0  0  0  0
   -2.4199    1.8444   -0.1905 C   0  0  0  0  0  0  0  0  0  0  0  0
   -0.9578    1.7189   -0.1417 C   0  0  0  0  0  0  0  0  0  0  0  0
   -0.1727    1.0903    0.7538 C   0  0  0  0  0  0  0  0  0  0  0  0
   -0.4671    0.5789    1.9956 O   0  0  0  0  0  0  0  0  0  0  0  0
   -1.7279    0.8016    2.6529 C   0  0  2  0  0  0  0  0  0  0  0  0
   -2.8722    0.1121    2.1046 O   0  0  0  0  0  0  0  0  0  0  0  0
   -2.5695   -0.9237    1.1674 C   0  0  2  0  0  0  0  0  0  0  0  0
   -3.5894   -0.8997    0.0189 C   0  0  0  0  0  0  0  0  0  0  0  0
   -2.9124   -0.3535   -1.1396 O   0  0  0  0  0  0  0  0  0  0  0  0
   -3.0565    1.0656   -1.3460 C   0  0  2  0  0  0  0  0  0  0  0  0
   -2.2700    1.4306   -2.4922 O   0  0  0  0  0  0  0  0  0  0  0  0
   -2.3926    0.6073   -3.6455 C   0  0  1  0  0  0  0  0  0  0  0  0
   -3.6213    1.0195   -4.4498 C   0  0  0  0  0  0  0  0  0  0  0  0
   -1.0877    0.7911   -4.4506 C   0  0  2  0  0  0  0  0  0  0  0  0
   -1.0142   -0.1366   -5.5383 O   0  0  0  0  0  0  0  0  0  0  0  0
    0.2124    0.6256   -3.6108 C   0  0  2  0  0  0  0  0  0  0  0  0
    1.3281    0.9202   -4.4907 O   0  0  0  0  0  0  0  0  0  0  0  0
    0.4335   -0.7863   -3.0066 C   0  0  1  0  0  0  0  0  0  0  0  0
    1.7176   -1.2939   -3.4472 O   0  0  0  0  0  0  0  0  0  0  0  0
   -2.2942   -2.2523    1.8614 C   0  0  1  0  0  0  0  0  0  0  0  0
   -3.5139   -2.9234    2.1894 O   0  0  0  0  0  0  0  0  0  0  0  0
   -1.4173   -3.2009    1.0079 C   0  0  2  0  0  0  0  0  0  0  0  0
   -1.0631   -4.3257    1.8434 O   0  0  0  0  0  0  0  0  0  0  0  0
   -0.0791   -2.5877    0.4549 C   0  0  1  0  0  0  0  0  0  0  0  0
    0.8362   -3.6680    0.2515 O   0  0  0  0  0  0  0  0  0  0  0  0
    1.1757    0.6912    0.2042 C   0  0  0  0  0  0  0  0  0  0  0  0
    1.4074   -0.1757   -0.7503 O   0  0  0  0  0  0  0  0  0  0  0  0
    0.4037   -0.9001   -1.4630 C   0  0  0  0  0  0  0  0  0  0  0  0
   -0.1979   -1.9688   -0.9044 C   0  0  0  0  0  0  0  0  0  0  0  0
    2.3505    1.3451    0.8716 C   0  0  0  0  0  0  0  0  0  0  0  0
    2.2345    2.3907    1.7996 C   0  0  0  0  0  0  0  0  0  0  0  0
    3.3865    2.9340    2.3577 C   0  0  0  0  0  0  0  0  0  0  0  0
    3.2570    3.9405    3.2694 O   0  0  0  0  0  0  0  0  0  0  0  0
    4.6448    2.4580    2.0106 C   0  0  0  0  0  0  0  0  0  0  0  0
    5.7369    2.9842    2.6384 O   0  0  0  0  0  0  0  0  0  0  0  0
    4.7607    1.4499    1.0644 C   0  0  0  0  0  0  0  0  0  0  0  0
    5.9810    1.0089    0.6495 O   0  0  0  0  0  0  0  0  0  0  0  0
    3.6236    0.8783    0.5024 C   0  0  0  0  0  0  0  0  0  0  0  0
   -1.6882    3.7876    4.0535 H   0  0  0  0  0  0  0  0  0  0  0  0
   -2.8176    4.1260    2.1153 H   0  0  0  0  0  0  0  0  0  0  0  0
   -4.9108    3.0286    1.3513 H   0  0  0  0  0  0  0  0  0  0  0  0
   -0.4989    2.0950   -1.0545 H   0  0  0  0  0  0  0  0  0  0  0  0
   -1.6095    0.3753    3.6561 H   0  0  0  0  0  0  0  0  0  0  0  0
   -1.6423   -0.6864    0.6874 H   0  0  0  0  0  0  0  0  0  0  0  0
   -4.4944   -0.3270    0.2459 H   0  0  0  0  0  0  0  0  0  0  0  0
   -3.8782   -1.9159   -0.2641 H   0  0  0  0  0  0  0  0  0  0  0  0
   -4.1062    1.3146   -1.5304 H   0  0  0  0  0  0  0  0  0  0  0  0
   -2.4888   -0.4530   -3.3885 H   0  0  0  0  0  0  0  0  0  0  0  0
   -3.5731    2.0797   -4.7210 H   0  0  0  0  0  0  0  0  0  0  0  0
   -4.5330    0.8877   -3.8580 H   0  0  0  0  0  0  0  0  0  0  0  0
   -3.7229    0.4267   -5.3634 H   0  0  0  0  0  0  0  0  0  0  0  0
   -1.0604    1.7979   -4.8884 H   0  0  0  0  0  0  0  0  0  0  0  0
   -1.6366    0.1563   -6.2315 H   0  0  0  0  0  0  0  0  0  0  0  0
    0.2557    1.3891   -2.8359 H   0  0  0  0  0  0  0  0  0  0  0  0
    1.1051    0.5031   -5.3526 H   0  0  0  0  0  0  0  0  0  0  0  0
   -0.3050   -1.4769   -3.4281 H   0  0  0  0  0  0  0  0  0  0  0  0
    2.2148   -0.5208   -3.7901 H   0  0  0  0  0  0  0  0  0  0  0  0
   -1.7823   -2.0812    2.8165 H   0  0  0  0  0  0  0  0  0  0  0  0
   -3.9949   -2.3617    2.8283 H   0  0  0  0  0  0  0  0  0  0  0  0
   -2.0065   -3.6269    0.1866 H   0  0  0  0  0  0  0  0  0  0  0  0
   -1.9089   -4.6627    2.2078 H   0  0  0  0  0  0  0  0  0  0  0  0
    0.3785   -1.9231    1.1920 H   0  0  0  0  0  0  0  0  0  0  0  0
    0.6108   -4.3374    0.9362 H   0  0  0  0  0  0  0  0  0  0  0  0
   -0.7773   -2.5942   -1.5847 H   0  0  0  0  0  0  0  0  0  0  0  0
    1.2782    2.7989    2.1138 H   0  0  0  0  0  0  0  0  0  0  0  0
    4.1708    4.1797    3.5303 H   0  0  0  0  0  0  0  0  0  0  0  0
    6.4004    2.2703    2.7035 H   0  0  0  0  0  0  0  0  0  0  0  0
    6.5751    1.7807    0.5953 H   0  0  0  0  0  0  0  0  0  0  0  0
    3.7356    0.0789   -0.2294 H   0  0  0  0  0  0  0  0  0  0  0  0
  1  2  1  0
  2  3  2  3
  3  4  1  0
  4  5  1  0
  4  6  2  3
  6  7  1  0
  7  8  2  3
  8  9  1  0
  9 10  1  0
 10 11  1  0
 11 12  1  0
 12 13  1  0
 13 14  1  0
 14 15  1  0
 15 16  1  0
 16 17  1  0
 17 18  1  0
 17 19  1  0
 19 20  1  0
 19 21  1  0
 21 22  1  0
 21 23  1  0
 23 24  1  0
 12 25  1  0
 25 26  1  0
 25 27  1  0
 27 28  1  0
 27 29  1  0
 29 30  1  0
  8 31  1  0
 31 32  2  3
 32 33  1  0
 33 34  2  3
 31 35  1  0
 35 36  1  0
 36 37  2  0
 37 38  1  0
 37 39  1  0
 39 40  1  0
 39 41  2  0
 41 42  1  0
 41 43  1  0
 10  2  1  0
 34 29  1  0
 43 35  2  0
 15  6  1  0
 33 23  1  0
  1 44  1  0
  3 45  1  0
  5 46  1  0
  7 47  1  0
 10 48  1  1
 12 49  1  6
 13 50  1  0
 13 51  1  0
 15 52  1  6
 17 53  1  1
 18 54  1  0
 18 55  1  0
 18 56  1  0
 19 57  1  6
 20 58  1  0
 21 59  1  1
 22 60  1  0
 23 61  1  6
 24 62  1  0
 25 63  1  1
 26 64  1  0
 27 65  1  6
 28 66  1  0
 29 67  1  1
 30 68  1  0
 34 69  1  0
 36 70  1  0
 38 71  1  0
 40 72  1  0
 42 73  1  0
 43 74  1  0
M  CHG  1  32   1
M  END
>  <clase>  (1) 
Antocianina

>  <carga>  (1) 
1

>  <InChIKey>  (1) 
XBUSMTWUAOJGFD-TWDUISDLSA-O

$$$$
