Delfinidin-3-glucósido
     RDKit          3D

 54 57  0  0  0  0  0  0  0  0999 V2000
   -3.6799    3.8615    4.0378 O   0  0  0  0  0  0  0  0  0  0  0  0
   -3.1889    3.0195    3.0891 C   0  0  0  0  0  0  0  0  0  0  0  0
   -3.6975    2.9955    1.7967 C   0  0  0  0  0  0  0  0  0  0  0  0
   -3.1453    2.1066    0.8737 C   0  0  0  0  0  0  0  0  0  0  0  0
   -3.6230    2.0688   -0.4078 O   0  0  0  0  0  0  0  0  0  0  0  0
   -2.0890    1.2391    1.2214 C   0  0  0  0  0  0  0  0  0  0  0  0
   -1.5073    0.3304    0.3256 C   0  0  0  0  0  0  0  0  0  0  0  0
   -0.4401   -0.4772    0.7100 C   0  0  0  0  0  0  0  0  0  0  0  0
    0.1042   -1.4197   -0.1250 O   0  0  0  0  0  0  0  0  0  0  0  0
    0.1932   -1.1120   -1.5319 C   0  0  2  0  0  0  0  0  0  0  0  0
   -1.0200   -1.4360   -2.1944 O   0  0  0  0  0  0  0  0  0  0  0  0
   -1.0188   -1.0167   -3.5747 C   0  0  2  0  0  0  0  0  0  0  0  0
   -2.0935   -1.8213   -4.3145 C   0  0  0  0  0  0  0  0  0  0  0  0
   -2.2784   -1.2938   -5.6228 O   0  0  0  0  0  0  0  0  0  0  0  0
    0.3704   -1.1410   -4.2542 C   0  0  1  0  0  0  0  0  0  0  0  0
    1.0945    0.0961   -4.0767 O   0  0  0  0  0  0  0  0  0  0  0  0
    1.2111   -2.2427   -3.5999 C   0  0  2  0  0  0  0  0  0  0  0  0
    0.6063   -3.5152   -3.8235 O   0  0  0  0  0  0  0  0  0  0  0  0
    1.3653   -1.9612   -2.0921 C   0  0  1  0  0  0  0  0  0  0  0  0
    2.6052   -1.2722   -1.8231 O   0  0  0  0  0  0  0  0  0  0  0  0
    0.0550   -0.4074    2.0276 C   0  0  0  0  0  0  0  0  0  0  0  0
   -0.5702    0.4452    2.9885 O   0  0  0  0  0  0  0  0  0  0  0  0
   -1.6086    1.2941    2.5370 C   0  0  0  0  0  0  0  0  0  0  0  0
   -2.1519    2.1764    3.4642 C   0  0  0  0  0  0  0  0  0  0  0  0
    1.1995   -1.1608    2.5726 C   0  0  0  0  0  0  0  0  0  0  0  0
    2.3398   -1.4986    1.8078 C   0  0  0  0  0  0  0  0  0  0  0  0
    3.3937   -2.2118    2.3774 C   0  0  0  0  0  0  0  0  0  0  0  0
    4.4990   -2.5637    1.6566 O   0  0  0  0  0  0  0  0  0  0  0  0
    3.3447   -2.5827    3.7126 C   0  0  0  0  0  0  0  0  0  0  0  0
    4.3700   -3.2785    4.2872 O   0  0  0  0  0  0  0  0  0  0  0  0
    2.2468   -2.2414    4.4850 C   0  0  0  0  0  0  0  0  0  0  0  0
    2.1922   -2.5940    5.8003 O   0  0  0  0  0  0  0  0  0  0  0  0
    1.1850   -1.5348    3.9322 C   0  0  0  0  0  0  0  0  0  0  0  0
   -4.4105    4.4025    3.6874 H   0  0  0  0  0  0  0  0  0  0  0  0
   -4.5094    3.6599    1.5124 H   0  0  0  0  0  0  0  0  0  0  0  0
   -4.3713    2.6847   -0.5185 H   0  0  0  0  0  0  0  0  0  0  0  0
   -1.9248    0.2549   -0.6780 H   0  0  0  0  0  0  0  0  0  0  0  0
    0.4164   -0.0409   -1.6363 H   0  0  0  0  0  0  0  0  0  0  0  0
   -1.3170    0.0400   -3.5860 H   0  0  0  0  0  0  0  0  0  0  0  0
   -3.0462   -1.7615   -3.7769 H   0  0  0  0  0  0  0  0  0  0  0  0
   -1.8267   -2.8799   -4.3868 H   0  0  0  0  0  0  0  0  0  0  0  0
   -2.9336   -1.8629   -6.0672 H   0  0  0  0  0  0  0  0  0  0  0  0
    0.2774   -1.3147   -5.3317 H   0  0  0  0  0  0  0  0  0  0  0  0
    0.7676    0.7001   -4.7740 H   0  0  0  0  0  0  0  0  0  0  0  0
    2.2011   -2.2622   -4.0723 H   0  0  0  0  0  0  0  0  0  0  0  0
    1.2670   -4.2006   -3.6117 H   0  0  0  0  0  0  0  0  0  0  0  0
    1.4253   -2.9107   -1.5468 H   0  0  0  0  0  0  0  0  0  0  0  0
    2.6844   -0.5722   -2.5065 H   0  0  0  0  0  0  0  0  0  0  0  0
   -1.7595    2.1910    4.4759 H   0  0  0  0  0  0  0  0  0  0  0  0
    2.4231   -1.1951    0.7681 H   0  0  0  0  0  0  0  0  0  0  0  0
    4.3910   -2.2802    0.7301 H   0  0  0  0  0  0  0  0  0  0  0  0
    5.0278   -3.3997    3.5712 H   0  0  0  0  0  0  0  0  0  0  0  0
    3.0299   -3.0731    5.9726 H   0  0  0  0  0  0  0  0  0  0  0  0
    0.3430   -1.2772    4.5739 H   0  0  0  0  0  0  0  0  0  0  0  0
  1  2  1  0
  2  3  2  0
  3  4  1  0
  4  5  1  0
  4  6  2  0
  6  7  1  0
  7  8  2  0
  8  9  1  0
  9 10  1  0
 10 11  1  0
 11 12  1  0
 12 13  1  0
 13 14  1  0
 12 15  1  0
 15 16  1  0
 15 17  1  0
 17 18  1  0
 17 19  1  0
 19 20  1  0
  8 21  1  0
 21 22  2  0
 22 23  1  0
 23 24  2  0
 21 25  1  0
 25 26  1  0
 26 27  2  0
 27 28  1  0
 27 29  1  0
 29 30  1  0
 29 31  2  0
 31 32  1  0
 31 33  1  0
 19 10  1  0
 33 25  2  0
 24  2  1  0
 23  6  1  0
  1 34  1  0
  3 35  1  0
  5 36  1  0
  7 37  1  0
 10 38  1  1
 12 39  1  1
 13 40  1  0
 13 41  1  0
 14 42  1  0
 15 43  1  6
 16 44  1  0
 17 45  1  6
 18 46  1  0
 19 47  1  1
 20 48  1  0
 24 49  1  0
 26 50  1  0
 28 51  1  0
 30 52  1  0
 32 53  1  0
 33 54  1  0
M  CHG  1  22   1
M  END
>  <clase>  (1) 
Antocianina

>  <carga>  (1) 
1

>  <InChIKey>  (1) 
XENHPQQLDPAYIJ-PEVLUNPASA-O

>  <fuente>  (1) 
Ruiz 2024

$$$$
