Quercetina
     RDKit          3D

 32 34  0  0  0  0  0  0  0  0999 V2000
    0.2940    2.7468    3.8854 O   0  0  0  0  0  0  0  0  0  0  0  0
   -0.0104    2.3409    2.7773 C   0  0  0  0  0  0  0  0  0  0  0  0
   -0.2977    2.9806    1.4923 C   0  0  0  0  0  0  0  0  0  0  0  0
   -0.3465    4.1955    1.0794 O   0  0  0  0  0  0  0  0  0  0  0  0
   -0.4613    1.7586    0.9065 C   0  0  0  0  0  0  0  0  0  0  0  0
   -0.2722    1.0510    2.1599 C   0  0  0  0  0  0  0  0  0  0  0  0
   -0.2769   -0.1458    2.7534 C   0  0  0  0  0  0  0  0  0  0  0  0
   -0.5204   -1.4928    2.3078 C   0  0  0  0  0  0  0  0  0  0  0  0
   -1.4908   -2.0298    1.5580 C   0  0  0  0  0  0  0  0  0  0  0  0
   -1.5248   -3.4091    1.4279 O   0  0  0  0  0  0  0  0  0  0  0  0
   -2.5562   -1.3501    0.8483 C   0  0  0  0  0  0  0  0  0  0  0  0
   -3.7903   -1.3880    1.4605 O   0  0  0  0  0  0  0  0  0  0  0  0
   -2.4271   -0.8105   -0.3717 C   0  0  0  0  0  0  0  0  0  0  0  0
   -0.7585    1.4265   -0.2930 O   0  0  0  0  0  0  0  0  0  0  0  0
   -0.2678    0.2820   -0.8649 C   0  0  0  0  0  0  0  0  0  0  0  0
    1.0305    0.2682   -1.3767 C   0  0  0  0  0  0  0  0  0  0  0  0
    1.4760   -0.8544   -2.0658 C   0  0  0  0  0  0  0  0  0  0  0  0
    2.7543   -0.8398   -2.5420 O   0  0  0  0  0  0  0  0  0  0  0  0
    0.6391   -1.9472   -2.2758 C   0  0  0  0  0  0  0  0  0  0  0  0
   -0.6625   -1.9115   -1.7791 C   0  0  0  0  0  0  0  0  0  0  0  0
   -1.4493   -3.0067   -2.0227 O   0  0  0  0  0  0  0  0  0  0  0  0
   -1.1298   -0.8044   -1.0573 C   0  0  0  0  0  0  0  0  0  0  0  0
   -0.1513    4.7856    1.8322 H   0  0  0  0  0  0  0  0  0  0  0  0
   -0.0152   -0.1271    3.8148 H   0  0  0  0  0  0  0  0  0  0  0  0
    0.1605   -2.2089    2.7734 H   0  0  0  0  0  0  0  0  0  0  0  0
   -2.0363   -3.6174    0.6252 H   0  0  0  0  0  0  0  0  0  0  0  0
   -3.6643   -1.7847    2.3425 H   0  0  0  0  0  0  0  0  0  0  0  0
   -3.2601   -0.3258   -0.8686 H   0  0  0  0  0  0  0  0  0  0  0  0
    1.6824    1.1275   -1.2537 H   0  0  0  0  0  0  0  0  0  0  0  0
    2.9290   -1.6832   -2.9921 H   0  0  0  0  0  0  0  0  0  0  0  0
    0.9766   -2.8227   -2.8205 H   0  0  0  0  0  0  0  0  0  0  0  0
   -2.3770   -2.7317   -1.9171 H   0  0  0  0  0  0  0  0  0  0  0  0
  1  2  2  0
  2  3  1  0
  3  4  1  0
  3  5  2  0
  5  6  1  0
  6  7  2  3
  7  8  1  0
  8  9  2  3
  9 10  1  0
  9 11  1  0
 11 12  1  0
 11 13  2  3
  5 14  1  0
 14 15  1  0
 15 16  2  0
 16 17  1  0
 17 18  1  0
 17 19  2  0
 19 20  1  0
 20 21  1  0
 20 22  2  0
  6  2  1  0
 22 13  1  0
 22 15  1  0
  4 23  1  0
  7 24  1  0
  8 25  1  0
 10 26  1  0
 12 27  1  0
 13 28  1  0
 16 29  1  0
 18 30  1  0
 19 31  1  0
 21 32  1  0
M  END
>  <clase>  (1) 
Flavonol

>  <carga>  (1) 
0

>  <InChIKey>  (1) 
XTAUXAINDDZIRC-UHFFFAOYSA-N

$$$$
