Berberina (*alcaloide, no polifenol)
     RDKit          3D

 43 47  0  0  0  0  0  0  0  0999 V2000
    2.0748    4.5823    3.0002 C   0  0  0  0  0  0  0  0  0  0  0  0
    1.1884    4.1916    1.9574 O   0  0  0  0  0  0  0  0  0  0  0  0
    0.9541    2.8581    1.7664 C   0  0  0  0  0  0  0  0  0  0  0  0
    1.5042    1.8561    2.5707 C   0  0  0  0  0  0  0  0  0  0  0  0
    1.2759    0.5059    2.2913 C   0  0  0  0  0  0  0  0  0  0  0  0
    0.4989    0.1242    1.1920 C   0  0  0  0  0  0  0  0  0  0  0  0
    0.2797   -1.2232    0.8895 C   0  0  0  0  0  0  0  0  0  0  0  0
   -0.4949   -1.5944   -0.2191 C   0  0  0  0  0  0  0  0  0  0  0  0
   -1.0174   -0.6165   -1.0117 N   0  0  0  0  0  0  0  0  0  0  0  0
   -0.8253    0.6924   -0.7224 C   0  0  0  0  0  0  0  0  0  0  0  0
   -0.0679    1.1134    0.3755 C   0  0  0  0  0  0  0  0  0  0  0  0
    0.1374    2.4843    0.6810 C   0  0  0  0  0  0  0  0  0  0  0  0
   -0.4716    3.3555   -0.1966 O   0  0  0  0  0  0  0  0  0  0  0  0
   -0.9316    4.5954    0.3396 C   0  0  0  0  0  0  0  0  0  0  0  0
   -1.8621   -0.9544   -2.1876 C   0  0  0  0  0  0  0  0  0  0  0  0
   -1.2713   -2.1396   -2.9298 C   0  0  0  0  0  0  0  0  0  0  0  0
   -1.1266   -3.2838   -1.9652 C   0  0  0  0  0  0  0  0  0  0  0  0
   -1.3304   -4.6027   -2.4041 C   0  0  0  0  0  0  0  0  0  0  0  0
   -1.1954   -5.6128   -1.4812 C   0  0  0  0  0  0  0  0  0  0  0  0
   -1.3653   -6.9382   -1.7202 O   0  0  0  0  0  0  0  0  0  0  0  0
   -1.1023   -7.4908   -0.4119 C   0  0  0  0  0  0  0  0  0  0  0  0
   -0.7910   -6.4817    0.5752 O   0  0  0  0  0  0  0  0  0  0  0  0
   -0.8677   -5.3519   -0.1763 C   0  0  0  0  0  0  0  0  0  0  0  0
   -0.6454   -4.0676    0.2817 C   0  0  0  0  0  0  0  0  0  0  0  0
   -0.7578   -2.9917   -0.6209 C   0  0  0  0  0  0  0  0  0  0  0  0
    1.6766    4.3002    3.9802 H   0  0  0  0  0  0  0  0  0  0  0  0
    2.1573    5.6732    2.9760 H   0  0  0  0  0  0  0  0  0  0  0  0
    3.0764    4.1689    2.8430 H   0  0  0  0  0  0  0  0  0  0  0  0
    2.1304    2.0905    3.4273 H   0  0  0  0  0  0  0  0  0  0  0  0
    1.7285   -0.2405    2.9439 H   0  0  0  0  0  0  0  0  0  0  0  0
    0.7372   -1.9862    1.5168 H   0  0  0  0  0  0  0  0  0  0  0  0
   -1.2933    1.4118   -1.3902 H   0  0  0  0  0  0  0  0  0  0  0  0
   -0.1411    5.3496    0.2914 H   0  0  0  0  0  0  0  0  0  0  0  0
   -1.7507    4.9430   -0.2979 H   0  0  0  0  0  0  0  0  0  0  0  0
   -1.3302    4.4887    1.3543 H   0  0  0  0  0  0  0  0  0  0  0  0
   -2.8644   -1.1616   -1.7932 H   0  0  0  0  0  0  0  0  0  0  0  0
   -1.9138   -0.0864   -2.8529 H   0  0  0  0  0  0  0  0  0  0  0  0
   -0.2848   -1.8919   -3.3388 H   0  0  0  0  0  0  0  0  0  0  0  0
   -1.9298   -2.4107   -3.7624 H   0  0  0  0  0  0  0  0  0  0  0  0
   -1.5923   -4.8376   -3.4317 H   0  0  0  0  0  0  0  0  0  0  0  0
   -1.9873   -8.0456   -0.0799 H   0  0  0  0  0  0  0  0  0  0  0  0
   -0.2559   -8.1832   -0.4857 H   0  0  0  0  0  0  0  0  0  0  0  0
   -0.3954   -3.9343    1.3298 H   0  0  0  0  0  0  0  0  0  0  0  0
  1  2  1  0
  2  3  1  0
  3  4  2  0
  4  5  1  0
  5  6  2  0
  6  7  1  0
  7  8  2  0
  8  9  1  0
  9 10  2  0
 10 11  1  0
 11 12  2  0
 12 13  1  0
 13 14  1  0
  9 15  1  0
 15 16  1  0
 16 17  1  0
 17 18  1  0
 18 19  2  0
 19 20  1  0
 20 21  1  0
 21 22  1  0
 22 23  1  0
 23 24  2  0
 24 25  1  0
 12  3  1  0
 25 17  2  0
 11  6  1  0
 23 19  1  0
 25  8  1  0
  1 26  1  0
  1 27  1  0
  1 28  1  0
  4 29  1  0
  5 30  1  0
  7 31  1  0
 10 32  1  0
 14 33  1  0
 14 34  1  0
 14 35  1  0
 15 36  1  0
 15 37  1  0
 16 38  1  0
 16 39  1  0
 18 40  1  0
 21 41  1  0
 21 42  1  0
 24 43  1  0
M  CHG  1   9   1
M  END
>  <clase>  (1) 
Alcaloide isoquinolínico

>  <carga>  (1) 
1

>  <InChIKey>  (1) 
YBHILYKTIRIUTE-UHFFFAOYSA-N

>  <parte_planta>  (1) 
tallo

$$$$
