Berberina (*alcaloide, no polifenol)
     RDKit          3D

 43 47  0  0  0  0  0  0  0  0999 V2000
   -0.1450   -6.5496    0.7626 C   0  0  0  0  0  0  0  0  0  0  0  0
   -0.9202   -5.4068    1.1075 O   0  0  0  0  0  0  0  0  0  0  0  0
   -0.5297   -4.1861    0.6312 C   0  0  0  0  0  0  0  0  0  0  0  0
    0.5649   -4.0052   -0.2189 C   0  0  0  0  0  0  0  0  0  0  0  0
    0.9536   -2.7261   -0.6261 C   0  0  0  0  0  0  0  0  0  0  0  0
    0.2623   -1.5934   -0.1826 C   0  0  0  0  0  0  0  0  0  0  0  0
    0.6566   -0.3065   -0.5616 C   0  0  0  0  0  0  0  0  0  0  0  0
   -0.0372    0.8226   -0.1028 C   0  0  0  0  0  0  0  0  0  0  0  0
   -1.1202    0.6437    0.7051 N   0  0  0  0  0  0  0  0  0  0  0  0
   -1.5100   -0.5964    1.0845 C   0  0  0  0  0  0  0  0  0  0  0  0
   -0.8469   -1.7525    0.6605 C   0  0  0  0  0  0  0  0  0  0  0  0
   -1.2589   -3.0548    1.0477 C   0  0  0  0  0  0  0  0  0  0  0  0
   -2.3586   -3.0741    1.8786 O   0  0  0  0  0  0  0  0  0  0  0  0
   -3.2348   -4.1947    1.7674 C   0  0  0  0  0  0  0  0  0  0  0  0
   -1.8726    1.8071    1.2443 C   0  0  0  0  0  0  0  0  0  0  0  0
   -2.0439    2.8610    0.1653 C   0  0  0  0  0  0  0  0  0  0  0  0
   -0.6848    3.2350   -0.3580 C   0  0  0  0  0  0  0  0  0  0  0  0
   -0.4224    4.5592   -0.7470 C   0  0  0  0  0  0  0  0  0  0  0  0
    0.8385    4.8529   -1.2096 C   0  0  0  0  0  0  0  0  0  0  0  0
    1.2740    6.0726   -1.6162 O   0  0  0  0  0  0  0  0  0  0  0  0
    2.6401    5.7724   -1.9763 C   0  0  0  0  0  0  0  0  0  0  0  0
    2.9867    4.3844   -1.7690 O   0  0  0  0  0  0  0  0  0  0  0  0
    1.8114    3.8916   -1.2970 C   0  0  0  0  0  0  0  0  0  0  0  0
    1.5794    2.5781   -0.9374 C   0  0  0  0  0  0  0  0  0  0  0  0
    0.3023    2.2140   -0.4669 C   0  0  0  0  0  0  0  0  0  0  0  0
    0.8842   -6.4525    1.1232 H   0  0  0  0  0  0  0  0  0  0  0  0
   -0.5913   -7.4168    1.2587 H   0  0  0  0  0  0  0  0  0  0  0  0
   -0.1736   -6.7322   -0.3164 H   0  0  0  0  0  0  0  0  0  0  0  0
    1.1521   -4.8450   -0.5808 H   0  0  0  0  0  0  0  0  0  0  0  0
    1.8167   -2.6336   -1.2851 H   0  0  0  0  0  0  0  0  0  0  0  0
    1.5058   -0.1912   -1.2327 H   0  0  0  0  0  0  0  0  0  0  0  0
   -2.3695   -0.6541    1.7483 H   0  0  0  0  0  0  0  0  0  0  0  0
   -3.3433   -4.5378    0.7328 H   0  0  0  0  0  0  0  0  0  0  0  0
   -4.2232   -3.8715    2.1092 H   0  0  0  0  0  0  0  0  0  0  0  0
   -2.9105   -5.0012    2.4310 H   0  0  0  0  0  0  0  0  0  0  0  0
   -2.8534    1.4689    1.5940 H   0  0  0  0  0  0  0  0  0  0  0  0
   -1.2949    2.1725    2.1022 H   0  0  0  0  0  0  0  0  0  0  0  0
   -2.5538    3.7334    0.5886 H   0  0  0  0  0  0  0  0  0  0  0  0
   -2.6507    2.4768   -0.6629 H   0  0  0  0  0  0  0  0  0  0  0  0
   -1.1741    5.3409   -0.6865 H   0  0  0  0  0  0  0  0  0  0  0  0
    3.3085    6.3954   -1.3712 H   0  0  0  0  0  0  0  0  0  0  0  0
    2.7872    6.0171   -3.0345 H   0  0  0  0  0  0  0  0  0  0  0  0
    2.3986    1.8712   -1.0266 H   0  0  0  0  0  0  0  0  0  0  0  0
  1  2  1  0
  2  3  1  0
  3  4  2  0
  4  5  1  0
  5  6  2  0
  6  7  1  0
  7  8  2  0
  8  9  1  0
  9 10  2  0
 10 11  1  0
 11 12  2  0
 12 13  1  0
 13 14  1  0
  9 15  1  0
 15 16  1  0
 16 17  1  0
 17 18  1  0
 18 19  2  0
 19 20  1  0
 20 21  1  0
 21 22  1  0
 22 23  1  0
 23 24  2  0
 24 25  1  0
 12  3  1  0
 25 17  2  0
 11  6  1  0
 23 19  1  0
 25  8  1  0
  1 26  1  0
  1 27  1  0
  1 28  1  0
  4 29  1  0
  5 30  1  0
  7 31  1  0
 10 32  1  0
 14 33  1  0
 14 34  1  0
 14 35  1  0
 15 36  1  0
 15 37  1  0
 16 38  1  0
 16 39  1  0
 18 40  1  0
 21 41  1  0
 21 42  1  0
 24 43  1  0
M  CHG  1   9   1
M  END
>  <clase>  (1) 
Alcaloide isoquinolínico

>  <carga>  (1) 
1

>  <InChIKey>  (1) 
YBHILYKTIRIUTE-UHFFFAOYSA-N

$$$$
