Malvidín-3-rutinosido
     RDKit          3D

 80 84  0  0  0  0  0  0  0  0999 V2000
    4.5049   -6.9710    4.4696 O   0  0  0  0  0  0  0  0  0  0  0  0
    4.3391   -5.8312    3.7457 C   0  0  0  0  0  0  0  0  0  0  0  0
    5.4747   -5.2749    3.1665 C   0  0  0  0  0  0  0  0  0  0  0  0
    5.3588   -4.1075    2.4150 C   0  0  0  0  0  0  0  0  0  0  0  0
    6.4673   -3.5519    1.8389 O   0  0  0  0  0  0  0  0  0  0  0  0
    4.1152   -3.4770    2.2290 C   0  0  0  0  0  0  0  0  0  0  0  0
    3.9512   -2.3079    1.4716 C   0  0  0  0  0  0  0  0  0  0  0  0
    2.6942   -1.7369    1.3067 C   0  0  0  0  0  0  0  0  0  0  0  0
    2.4875   -0.6233    0.5287 O   0  0  0  0  0  0  0  0  0  0  0  0
    3.2300   -0.4896   -0.6947 C   0  0  2  0  0  0  0  0  0  0  0  0
    2.8018    0.7063   -1.3698 O   0  0  0  0  0  0  0  0  0  0  0  0
    1.5359    0.6444   -2.0493 C   0  0  2  0  0  0  0  0  0  0  0  0
    0.6975    1.8427   -1.5689 C   0  0  0  0  0  0  0  0  0  0  0  0
   -0.5662    1.8511   -2.2319 O   0  0  0  0  0  0  0  0  0  0  0  0
   -1.5527    2.6406   -1.5542 C   0  0  2  0  0  0  0  0  0  0  0  0
   -2.8232    2.4030   -2.1760 O   0  0  0  0  0  0  0  0  0  0  0  0
   -3.0508    3.2455   -3.3065 C   0  0  1  0  0  0  0  0  0  0  0  0
   -4.2995    2.7475   -4.0236 C   0  0  0  0  0  0  0  0  0  0  0  0
   -3.2146    4.7136   -2.8613 C   0  0  2  0  0  0  0  0  0  0  0  0
   -2.6849    5.5935   -3.8678 O   0  0  0  0  0  0  0  0  0  0  0  0
   -2.4579    4.9790   -1.5501 C   0  0  2  0  0  0  0  0  0  0  0  0
   -2.1049    6.3661   -1.4313 O   0  0  0  0  0  0  0  0  0  0  0  0
   -1.1833    4.1410   -1.4952 C   0  0  1  0  0  0  0  0  0  0  0  0
   -0.4578    4.4428   -0.2884 O   0  0  0  0  0  0  0  0  0  0  0  0
    0.7575   -0.6706   -1.8640 C   0  0  1  0  0  0  0  0  0  0  0  0
   -0.3607   -0.7920   -2.7467 O   0  0  0  0  0  0  0  0  0  0  0  0
    1.6448   -1.9065   -2.0677 C   0  0  2  0  0  0  0  0  0  0  0  0
    1.0978   -2.9617   -1.2433 O   0  0  0  0  0  0  0  0  0  0  0  0
    3.1064   -1.6752   -1.6722 C   0  0  1  0  0  0  0  0  0  0  0  0
    3.9090   -1.4339   -2.8370 O   0  0  0  0  0  0  0  0  0  0  0  0
    1.5789   -2.2891    1.9702 C   0  0  0  0  0  0  0  0  0  0  0  0
    1.7014   -3.4993    2.7187 O   0  0  0  0  0  0  0  0  0  0  0  0
    2.9934   -4.0667    2.8321 C   0  0  0  0  0  0  0  0  0  0  0  0
    3.0981   -5.2363    3.5856 C   0  0  0  0  0  0  0  0  0  0  0  0
    0.2159   -1.7358    1.9603 C   0  0  0  0  0  0  0  0  0  0  0  0
   -0.0540   -0.3602    2.1013 C   0  0  0  0  0  0  0  0  0  0  0  0
   -1.3668    0.1155    2.0658 C   0  0  0  0  0  0  0  0  0  0  0  0
   -1.7422    1.4315    2.1727 O   0  0  0  0  0  0  0  0  0  0  0  0
   -0.7458    2.3725    2.5613 C   0  0  0  0  0  0  0  0  0  0  0  0
   -2.4320   -0.7850    1.8901 C   0  0  0  0  0  0  0  0  0  0  0  0
   -3.6985   -0.2643    1.8491 O   0  0  0  0  0  0  0  0  0  0  0  0
   -2.1987   -2.1547    1.7729 C   0  0  0  0  0  0  0  0  0  0  0  0
   -3.1005   -3.1680    1.6089 O   0  0  0  0  0  0  0  0  0  0  0  0
   -4.4797   -2.8338    1.5177 C   0  0  0  0  0  0  0  0  0  0  0  0
   -0.8757   -2.6115    1.8209 C   0  0  0  0  0  0  0  0  0  0  0  0
    3.6605   -7.3025    4.8243 H   0  0  0  0  0  0  0  0  0  0  0  0
    6.4363   -5.7644    3.3108 H   0  0  0  0  0  0  0  0  0  0  0  0
    7.2560   -4.0968    2.0247 H   0  0  0  0  0  0  0  0  0  0  0  0
    4.8328   -1.8585    1.0148 H   0  0  0  0  0  0  0  0  0  0  0  0
    4.2829   -0.3046   -0.4556 H   0  0  0  0  0  0  0  0  0  0  0  0
    1.7291    0.7827   -3.1206 H   0  0  0  0  0  0  0  0  0  0  0  0
    0.5683    1.7745   -0.4822 H   0  0  0  0  0  0  0  0  0  0  0  0
    1.2345    2.7741   -1.7810 H   0  0  0  0  0  0  0  0  0  0  0  0
   -1.6490    2.2409   -0.5387 H   0  0  0  0  0  0  0  0  0  0  0  0
   -2.2084    3.1455   -4.0040 H   0  0  0  0  0  0  0  0  0  0  0  0
   -4.1678    1.7060   -4.3367 H   0  0  0  0  0  0  0  0  0  0  0  0
   -4.5201    3.3524   -4.9081 H   0  0  0  0  0  0  0  0  0  0  0  0
   -5.1688    2.7660   -3.3569 H   0  0  0  0  0  0  0  0  0  0  0  0
   -4.2655    4.9906   -2.7185 H   0  0  0  0  0  0  0  0  0  0  0  0
   -3.2636    5.5248   -4.6506 H   0  0  0  0  0  0  0  0  0  0  0  0
   -3.0886    4.7361   -0.6865 H   0  0  0  0  0  0  0  0  0  0  0  0
   -2.0718    6.7009   -2.3542 H   0  0  0  0  0  0  0  0  0  0  0  0
   -0.5155    4.4127   -2.3217 H   0  0  0  0  0  0  0  0  0  0  0  0
   -0.5349    5.4175   -0.1970 H   0  0  0  0  0  0  0  0  0  0  0  0
    0.3327   -0.6973   -0.8555 H   0  0  0  0  0  0  0  0  0  0  0  0
   -0.8410    0.0655   -2.7352 H   0  0  0  0  0  0  0  0  0  0  0  0
    1.5893   -2.2606   -3.1044 H   0  0  0  0  0  0  0  0  0  0  0  0
    0.2274   -3.1614   -1.6519 H   0  0  0  0  0  0  0  0  0  0  0  0
    3.5029   -2.5898   -1.2213 H   0  0  0  0  0  0  0  0  0  0  0  0
    3.7978   -0.5026   -3.1080 H   0  0  0  0  0  0  0  0  0  0  0  0
    2.1991   -5.6483    4.0293 H   0  0  0  0  0  0  0  0  0  0  0  0
    0.7699    0.3354    2.2353 H   0  0  0  0  0  0  0  0  0  0  0  0
   -1.2309    3.3471    2.6701 H   0  0  0  0  0  0  0  0  0  0  0  0
    0.0267    2.4671    1.7927 H   0  0  0  0  0  0  0  0  0  0  0  0
   -0.3076    2.1043    3.5282 H   0  0  0  0  0  0  0  0  0  0  0  0
   -3.6012    0.7025    1.9552 H   0  0  0  0  0  0  0  0  0  0  0  0
   -4.6790   -2.2031    0.6456 H   0  0  0  0  0  0  0  0  0  0  0  0
   -4.8402   -2.3807    2.4464 H   0  0  0  0  0  0  0  0  0  0  0  0
   -5.0349   -3.7665    1.3760 H   0  0  0  0  0  0  0  0  0  0  0  0
   -0.7012   -3.6852    1.7314 H   0  0  0  0  0  0  0  0  0  0  0  0
  1  2  1  0
  2  3  2  0
  3  4  1  0
  4  5  1  0
  4  6  2  0
  6  7  1  0
  7  8  2  0
  8  9  1  0
  9 10  1  0
 10 11  1  0
 11 12  1  0
 12 13  1  0
 13 14  1  0
 14 15  1  0
 15 16  1  0
 16 17  1  0
 17 18  1  0
 17 19  1  0
 19 20  1  0
 19 21  1  0
 21 22  1  0
 21 23  1  0
 23 24  1  0
 12 25  1  0
 25 26  1  0
 25 27  1  0
 27 28  1  0
 27 29  1  0
 29 30  1  0
  8 31  1  0
 31 32  2  0
 32 33  1  0
 33 34  2  0
 31 35  1  0
 35 36  1  0
 36 37  2  0
 37 38  1  0
 38 39  1  0
 37 40  1  0
 40 41  1  0
 40 42  2  0
 42 43  1  0
 43 44  1  0
 42 45  1  0
 29 10  1  0
 23 15  1  0
 45 35  2  0
 34  2  1  0
 33  6  1  0
  1 46  1  0
  3 47  1  0
  5 48  1  0
  7 49  1  0
 10 50  1  1
 12 51  1  6
 13 52  1  0
 13 53  1  0
 15 54  1  1
 17 55  1  6
 18 56  1  0
 18 57  1  0
 18 58  1  0
 19 59  1  1
 20 60  1  0
 21 61  1  1
 22 62  1  0
 23 63  1  6
 24 64  1  0
 25 65  1  1
 26 66  1  0
 27 67  1  6
 28 68  1  0
 29 69  1  1
 30 70  1  0
 34 71  1  0
 36 72  1  0
 39 73  1  0
 39 74  1  0
 39 75  1  0
 41 76  1  0
 44 77  1  0
 44 78  1  0
 44 79  1  0
 45 80  1  0
M  CHG  1  32   1
M  END
>  <clase>  (1) 
Antocianina

>  <carga>  (1) 
1

>  <InChIKey>  (1) 
YCDMGCUGMVVWAB-YAGJAPKFSA-O

>  <fuente>  (1) 
Ruiz 2024

$$$$
