Quercetín-3-rutinosido (Rutina)
     RDKit          3D

 73 77  0  0  0  0  0  0  0  0999 V2000
    0.3249    1.5299    1.3947 O   0  0  0  0  0  0  0  0  0  0  0  0
    0.4697    0.3705    1.7153 C   0  0  0  0  0  0  0  0  0  0  0  0
    1.1802   -0.8127    1.2063 C   0  0  0  0  0  0  0  0  0  0  0  0
    0.9952   -1.4626    2.3090 O   0  0  0  0  0  0  0  0  0  0  0  0
   -0.1052   -0.6173    2.7244 C   0  0  2  0  0  0  0  0  0  0  0  0
   -1.4096   -1.2045    2.4697 O   0  0  0  0  0  0  0  0  0  0  0  0
   -1.7163   -1.6581    1.1278 C   0  0  2  0  0  0  0  0  0  0  0  0
   -3.1280   -1.1559    0.7908 C   0  0  0  0  0  0  0  0  0  0  0  0
   -3.0316    0.2771    0.7168 O   0  0  0  0  0  0  0  0  0  0  0  0
   -3.9549    0.8669   -0.1966 C   0  0  2  0  0  0  0  0  0  0  0  0
   -3.7063    0.4341   -1.5401 O   0  0  0  0  0  0  0  0  0  0  0  0
   -2.6319    1.1481   -2.1546 C   0  0  1  0  0  0  0  0  0  0  0  0
   -2.2731    0.4393   -3.4546 C   0  0  0  0  0  0  0  0  0  0  0  0
   -3.0325    2.6122   -2.4088 C   0  0  2  0  0  0  0  0  0  0  0  0
   -1.8606    3.4495   -2.3396 O   0  0  0  0  0  0  0  0  0  0  0  0
   -4.0756    3.0834   -1.3821 C   0  0  2  0  0  0  0  0  0  0  0  0
   -3.9858    4.5120   -1.2487 O   0  0  0  0  0  0  0  0  0  0  0  0
   -3.8369    2.4044   -0.0359 C   0  0  1  0  0  0  0  0  0  0  0  0
   -4.7800    2.9123    0.9238 O   0  0  0  0  0  0  0  0  0  0  0  0
   -1.5028   -3.1870    1.0220 C   0  0  1  0  0  0  0  0  0  0  0  0
   -2.7684   -3.8276    0.7611 O   0  0  0  0  0  0  0  0  0  0  0  0
   -0.5007   -3.6074   -0.1028 C   0  0  2  0  0  0  0  0  0  0  0  0
   -0.8895   -4.9556   -0.5068 O   0  0  0  0  0  0  0  0  0  0  0  0
    1.0203   -3.6371    0.3072 C   0  0  1  0  0  0  0  0  0  0  0  0
    1.5110   -4.9605   -0.0261 O   0  0  0  0  0  0  0  0  0  0  0  0
    1.6354   -1.1643   -0.0091 C   0  0  0  0  0  0  0  0  0  0  0  0
    1.9368   -2.5683   -0.3388 C   0  0  0  0  0  0  0  0  0  0  0  0
    2.9456   -2.9188   -1.1736 C   0  0  0  0  0  0  0  0  0  0  0  0
    3.8773   -2.0986   -1.9324 C   0  0  0  0  0  0  0  0  0  0  0  0
    4.6950   -1.1239   -1.4993 C   0  0  0  0  0  0  0  0  0  0  0  0
    5.5784   -0.4857   -2.3453 O   0  0  0  0  0  0  0  0  0  0  0  0
    4.7869   -0.6380   -0.1402 C   0  0  0  0  0  0  0  0  0  0  0  0
    5.6183   -1.3607    0.6940 O   0  0  0  0  0  0  0  0  0  0  0  0
    4.1683    0.4528    0.3329 C   0  0  0  0  0  0  0  0  0  0  0  0
    1.6141   -0.3368   -1.1229 O   0  0  0  0  0  0  0  0  0  0  0  0
    2.0857    0.9572   -1.0440 C   0  0  0  0  0  0  0  0  0  0  0  0
    1.2798    1.8864   -1.7162 C   0  0  0  0  0  0  0  0  0  0  0  0
    1.6168    3.2317   -1.7165 C   0  0  0  0  0  0  0  0  0  0  0  0
    0.8059    4.1551   -2.3083 O   0  0  0  0  0  0  0  0  0  0  0  0
    2.7871    3.6621   -1.1126 C   0  0  0  0  0  0  0  0  0  0  0  0
    3.6158    2.7314   -0.4836 C   0  0  0  0  0  0  0  0  0  0  0  0
    4.7764    3.2324    0.0518 O   0  0  0  0  0  0  0  0  0  0  0  0
    3.2825    1.3629   -0.4191 C   0  0  0  0  0  0  0  0  0  0  0  0
   -0.0042   -0.3040    3.7679 H   0  0  0  0  0  0  0  0  0  0  0  0
   -1.0729   -1.1522    0.4083 H   0  0  0  0  0  0  0  0  0  0  0  0
   -3.4623   -1.5726   -0.1648 H   0  0  0  0  0  0  0  0  0  0  0  0
   -3.8464   -1.4038    1.5786 H   0  0  0  0  0  0  0  0  0  0  0  0
   -4.9652    0.5399    0.0773 H   0  0  0  0  0  0  0  0  0  0  0  0
   -1.7546    1.0960   -1.4982 H   0  0  0  0  0  0  0  0  0  0  0  0
   -1.4560    0.9480   -3.9751 H   0  0  0  0  0  0  0  0  0  0  0  0
   -1.9693   -0.5934   -3.2514 H   0  0  0  0  0  0  0  0  0  0  0  0
   -3.1391    0.3853   -4.1237 H   0  0  0  0  0  0  0  0  0  0  0  0
   -3.4480    2.7501   -3.4138 H   0  0  0  0  0  0  0  0  0  0  0  0
   -2.2291    4.3333   -2.1016 H   0  0  0  0  0  0  0  0  0  0  0  0
   -5.0886    2.8537   -1.7343 H   0  0  0  0  0  0  0  0  0  0  0  0
   -4.5063    4.7217   -0.4452 H   0  0  0  0  0  0  0  0  0  0  0  0
   -2.8470    2.6858    0.3464 H   0  0  0  0  0  0  0  0  0  0  0  0
   -4.5360    2.5056    1.7778 H   0  0  0  0  0  0  0  0  0  0  0  0
   -1.1556   -3.5980    1.9767 H   0  0  0  0  0  0  0  0  0  0  0  0
   -2.5689   -4.5939    0.1816 H   0  0  0  0  0  0  0  0  0  0  0  0
   -0.6567   -2.9854   -0.9912 H   0  0  0  0  0  0  0  0  0  0  0  0
   -0.4721   -5.5597    0.1445 H   0  0  0  0  0  0  0  0  0  0  0  0
    1.1175   -3.6014    1.3945 H   0  0  0  0  0  0  0  0  0  0  0  0
    1.1852   -5.1438   -0.9297 H   0  0  0  0  0  0  0  0  0  0  0  0
    3.1054   -3.9756   -1.3871 H   0  0  0  0  0  0  0  0  0  0  0  0
    3.9365   -2.3947   -2.9786 H   0  0  0  0  0  0  0  0  0  0  0  0
    5.3612   -0.7230   -3.2618 H   0  0  0  0  0  0  0  0  0  0  0  0
    6.0536   -2.0369    0.1455 H   0  0  0  0  0  0  0  0  0  0  0  0
    4.3336    0.7350    1.3707 H   0  0  0  0  0  0  0  0  0  0  0  0
    0.3823    1.5503   -2.2201 H   0  0  0  0  0  0  0  0  0  0  0  0
   -0.0887    3.7632   -2.4142 H   0  0  0  0  0  0  0  0  0  0  0  0
    3.0572    4.7132   -1.1302 H   0  0  0  0  0  0  0  0  0  0  0  0
    5.4004    2.4947    0.1652 H   0  0  0  0  0  0  0  0  0  0  0  0
  1  2  2  0
  2  3  1  0
  3  4  1  0
  4  5  1  0
  5  6  1  0
  6  7  1  0
  7  8  1  0
  8  9  1  0
  9 10  1  0
 10 11  1  0
 11 12  1  0
 12 13  1  0
 12 14  1  0
 14 15  1  0
 14 16  1  0
 16 17  1  0
 16 18  1  0
 18 19  1  0
  7 20  1  0
 20 21  1  0
 20 22  1  0
 22 23  1  0
 22 24  1  0
 24 25  1  0
  3 26  2  3
 26 27  1  0
 27 28  2  3
 28 29  1  0
 29 30  2  3
 30 31  1  0
 30 32  1  0
 32 33  1  0
 32 34  2  3
 26 35  1  0
 35 36  1  0
 36 37  2  0
 37 38  1  0
 38 39  1  0
 38 40  2  0
 40 41  1  0
 41 42  1  0
 41 43  2  0
  5  2  1  0
 27 24  1  0
 43 34  1  0
 18 10  1  0
 43 36  1  0
  5 44  1  1
  7 45  1  6
  8 46  1  0
  8 47  1  0
 10 48  1  1
 12 49  1  1
 13 50  1  0
 13 51  1  0
 13 52  1  0
 14 53  1  6
 15 54  1  0
 16 55  1  6
 17 56  1  0
 18 57  1  1
 19 58  1  0
 20 59  1  1
 21 60  1  0
 22 61  1  6
 23 62  1  0
 24 63  1  1
 25 64  1  0
 28 65  1  0
 29 66  1  0
 31 67  1  0
 33 68  1  0
 34 69  1  0
 37 70  1  0
 39 71  1  0
 40 72  1  0
 42 73  1  0
M  END
>  <clase>  (1) 
Flavonol

>  <carga>  (1) 
0

>  <InChIKey>  (1) 
YHBWWTJAPGJLSN-WUDITWQYSA-N

$$$$
