Ácido Protocatéquico
     RDKit          3D

 17 17  0  0  0  0  0  0  0  0999 V2000
   -2.8358    1.3872   -1.1555 O   0  0  0  0  0  0  0  0  0  0  0  0
   -2.3731    0.5701   -0.1929 C   0  0  0  0  0  0  0  0  0  0  0  0
   -3.1245    0.0616    0.6178 O   0  0  0  0  0  0  0  0  0  0  0  0
   -0.9033    0.3849   -0.2535 C   0  0  0  0  0  0  0  0  0  0  0  0
   -0.1120    1.0284   -1.2200 C   0  0  0  0  0  0  0  0  0  0  0  0
    1.2704    0.8229   -1.2483 C   0  0  0  0  0  0  0  0  0  0  0  0
    1.8498   -0.0228   -0.3131 C   0  0  0  0  0  0  0  0  0  0  0  0
    3.1897   -0.2682   -0.3881 O   0  0  0  0  0  0  0  0  0  0  0  0
    1.0726   -0.6348    0.6667 C   0  0  0  0  0  0  0  0  0  0  0  0
    1.6568   -1.4021    1.6325 O   0  0  0  0  0  0  0  0  0  0  0  0
   -0.3034   -0.4530    0.6957 C   0  0  0  0  0  0  0  0  0  0  0  0
   -3.8024    1.4137   -0.9942 H   0  0  0  0  0  0  0  0  0  0  0  0
   -0.5644    1.6855   -1.9592 H   0  0  0  0  0  0  0  0  0  0  0  0
    1.8826    1.3057   -2.0046 H   0  0  0  0  0  0  0  0  0  0  0  0
    3.3084   -1.2052   -0.1455 H   0  0  0  0  0  0  0  0  0  0  0  0
    2.4956   -0.9605    1.8613 H   0  0  0  0  0  0  0  0  0  0  0  0
   -0.9004   -0.9449    1.4595 H   0  0  0  0  0  0  0  0  0  0  0  0
  1  2  1  0
  2  3  2  0
  2  4  1  0
  4  5  1  0
  5  6  2  0
  6  7  1  0
  7  8  1  0
  7  9  2  0
  9 10  1  0
  9 11  1  0
 11  4  2  0
  1 12  1  0
  5 13  1  0
  6 14  1  0
  8 15  1  0
 10 16  1  0
 11 17  1  0
M  END
>  <clase>  (1) 
Ác. Hidroxibenzoico

>  <carga>  (1) 
0

>  <InChIKey>  (1) 
YQUVCSBJEUQKSH-UHFFFAOYSA-N

>  <parte_planta>  (1) 
tallo

$$$$
