Ácido Protocatéquico
     RDKit          3D

 17 17  0  0  0  0  0  0  0  0999 V2000
   -0.7234    0.0234   -2.0216 O   0  0  0  0  0  0  0  0  0  0  0  0
   -1.7967   -0.5120   -1.4126 C   0  0  0  0  0  0  0  0  0  0  0  0
   -2.6776   -1.0568   -2.0507 O   0  0  0  0  0  0  0  0  0  0  0  0
   -1.7581   -0.3542    0.0614 C   0  0  0  0  0  0  0  0  0  0  0  0
   -2.8266   -0.8740    0.8108 C   0  0  0  0  0  0  0  0  0  0  0  0
   -2.8364   -0.7506    2.2017 C   0  0  0  0  0  0  0  0  0  0  0  0
   -1.7790   -0.1095    2.8299 C   0  0  0  0  0  0  0  0  0  0  0  0
   -1.7882    0.0113    4.1895 O   0  0  0  0  0  0  0  0  0  0  0  0
   -0.7156    0.4085    2.0928 C   0  0  0  0  0  0  0  0  0  0  0  0
    0.2910    1.0273    2.7822 O   0  0  0  0  0  0  0  0  0  0  0  0
   -0.6936    0.2924    0.7077 C   0  0  0  0  0  0  0  0  0  0  0  0
   -0.8855   -0.1540   -2.9726 H   0  0  0  0  0  0  0  0  0  0  0  0
   -3.6540   -1.3763    0.3128 H   0  0  0  0  0  0  0  0  0  0  0  0
   -3.6591   -1.1500    2.7873 H   0  0  0  0  0  0  0  0  0  0  0  0
   -0.9606    0.4872    4.4017 H   0  0  0  0  0  0  0  0  0  0  0  0
    0.9570    1.3353    2.1429 H   0  0  0  0  0  0  0  0  0  0  0  0
    0.1328    0.6947    0.1309 H   0  0  0  0  0  0  0  0  0  0  0  0
  1  2  1  0
  2  3  2  0
  2  4  1  0
  4  5  1  0
  5  6  2  0
  6  7  1  0
  7  8  1  0
  7  9  2  0
  9 10  1  0
  9 11  1  0
 11  4  2  0
  1 12  1  0
  5 13  1  0
  6 14  1  0
  8 15  1  0
 10 16  1  0
 11 17  1  0
M  END
>  <clase>  (1) 
Ác. Hidroxibenzoico

>  <carga>  (1) 
0

>  <InChIKey>  (1) 
YQUVCSBJEUQKSH-UHFFFAOYSA-N

$$$$
