Dicafeoilglucárico
     RDKit          3D

 60 61  0  0  0  0  0  0  0  0999 V2000
   -1.4197    4.1415    4.9064 O   0  0  0  0  0  0  0  0  0  0  0  0
   -1.0471    3.1547    4.0556 C   0  0  0  0  0  0  0  0  0  0  0  0
   -1.8251    2.2630    3.7582 O   0  0  0  0  0  0  0  0  0  0  0  0
    0.4177    3.2961    3.6276 C   0  0  2  0  0  0  0  0  0  0  0  0
    0.9923    4.5403    4.0438 O   0  0  0  0  0  0  0  0  0  0  0  0
    0.6030    3.1415    2.1060 C   0  0  1  0  0  0  0  0  0  0  0  0
    0.1010    1.8631    1.6502 O   0  0  0  0  0  0  0  0  0  0  0  0
    0.8978    0.7906    1.8700 C   0  0  0  0  0  0  0  0  0  0  0  0
    2.0075    0.8074    2.3712 O   0  0  0  0  0  0  0  0  0  0  0  0
    0.1835   -0.4069    1.3923 C   0  0  0  0  0  0  0  0  0  0  0  0
    0.8317   -1.5724    1.2575 C   0  0  0  0  0  0  0  0  0  0  0  0
    0.1689   -2.7778    0.7507 C   0  0  0  0  0  0  0  0  0  0  0  0
   -1.0206   -3.2579    1.3248 C   0  0  0  0  0  0  0  0  0  0  0  0
   -1.6373   -4.4092    0.8263 C   0  0  0  0  0  0  0  0  0  0  0  0
   -1.0590   -5.0751   -0.2422 C   0  0  0  0  0  0  0  0  0  0  0  0
   -1.6715   -6.1817   -0.7576 O   0  0  0  0  0  0  0  0  0  0  0  0
    0.1233   -4.6122   -0.8121 C   0  0  0  0  0  0  0  0  0  0  0  0
    0.6208   -5.2947   -1.8889 O   0  0  0  0  0  0  0  0  0  0  0  0
    0.7494   -3.4730   -0.3185 C   0  0  0  0  0  0  0  0  0  0  0  0
   -0.0997    4.2669    1.3018 C   0  0  2  0  0  0  0  0  0  0  0  0
   -1.5243    4.0900    1.3807 O   0  0  0  0  0  0  0  0  0  0  0  0
    0.3473    4.2852   -0.1753 C   0  0  1  0  0  0  0  0  0  0  0  0
   -0.0772    3.0761   -0.8199 O   0  0  0  0  0  0  0  0  0  0  0  0
    0.5240    2.8360   -2.0097 C   0  0  0  0  0  0  0  0  0  0  0  0
    1.3459    3.5576   -2.5534 O   0  0  0  0  0  0  0  0  0  0  0  0
    0.1222    1.5333   -2.5789 C   0  0  0  0  0  0  0  0  0  0  0  0
   -0.7951    0.7230   -2.0281 C   0  0  0  0  0  0  0  0  0  0  0  0
   -1.1642   -0.6041   -2.5458 C   0  0  0  0  0  0  0  0  0  0  0  0
   -2.4354   -1.1166   -2.2278 C   0  0  0  0  0  0  0  0  0  0  0  0
   -2.8206   -2.3994   -2.6329 C   0  0  0  0  0  0  0  0  0  0  0  0
   -1.9252   -3.1747   -3.3534 C   0  0  0  0  0  0  0  0  0  0  0  0
   -2.2235   -4.4495   -3.7460 O   0  0  0  0  0  0  0  0  0  0  0  0
   -0.6635   -2.6801   -3.6686 C   0  0  0  0  0  0  0  0  0  0  0  0
    0.2260   -3.4785   -4.3342 O   0  0  0  0  0  0  0  0  0  0  0  0
   -0.2725   -1.4082   -3.2696 C   0  0  0  0  0  0  0  0  0  0  0  0
   -0.1819    5.5612   -0.8269 C   0  0  0  0  0  0  0  0  0  0  0  0
    0.1900    6.6975   -0.5725 O   0  0  0  0  0  0  0  0  0  0  0  0
   -1.1583    5.3568   -1.7361 O   0  0  0  0  0  0  0  0  0  0  0  0
   -2.3710    3.9628    5.0707 H   0  0  0  0  0  0  0  0  0  0  0  0
    0.9567    2.5072    4.1636 H   0  0  0  0  0  0  0  0  0  0  0  0
    0.4626    4.8322    4.8142 H   0  0  0  0  0  0  0  0  0  0  0  0
    1.6768    3.2159    1.8842 H   0  0  0  0  0  0  0  0  0  0  0  0
   -0.8646   -0.2923    1.1436 H   0  0  0  0  0  0  0  0  0  0  0  0
    1.8924   -1.6589    1.4847 H   0  0  0  0  0  0  0  0  0  0  0  0
   -1.4729   -2.7444    2.1704 H   0  0  0  0  0  0  0  0  0  0  0  0
   -2.5567   -4.7793    1.2687 H   0  0  0  0  0  0  0  0  0  0  0  0
   -1.0491   -6.4964   -1.4452 H   0  0  0  0  0  0  0  0  0  0  0  0
    1.1550   -4.6623   -2.4079 H   0  0  0  0  0  0  0  0  0  0  0  0
    1.6707   -3.1148   -0.7680 H   0  0  0  0  0  0  0  0  0  0  0  0
    0.1273    5.2394    1.7529 H   0  0  0  0  0  0  0  0  0  0  0  0
   -1.7138    3.2012    1.0192 H   0  0  0  0  0  0  0  0  0  0  0  0
    1.4437    4.3423   -0.2107 H   0  0  0  0  0  0  0  0  0  0  0  0
    0.6492    1.2785   -3.4915 H   0  0  0  0  0  0  0  0  0  0  0  0
   -1.3250    1.0304   -1.1296 H   0  0  0  0  0  0  0  0  0  0  0  0
   -3.1421   -0.5185   -1.6554 H   0  0  0  0  0  0  0  0  0  0  0  0
   -3.8061   -2.7705   -2.3708 H   0  0  0  0  0  0  0  0  0  0  0  0
   -2.9941   -4.7443   -3.2272 H   0  0  0  0  0  0  0  0  0  0  0  0
   -0.3022   -4.2701   -4.5713 H   0  0  0  0  0  0  0  0  0  0  0  0
    0.7319   -1.0735   -3.5085 H   0  0  0  0  0  0  0  0  0  0  0  0
   -1.3788    6.2576   -2.0531 H   0  0  0  0  0  0  0  0  0  0  0  0
  1  2  1  0
  2  3  2  0
  2  4  1  0
  4  5  1  0
  4  6  1  0
  6  7  1  0
  7  8  1  0
  8  9  2  0
  8 10  1  0
 10 11  2  0
 11 12  1  0
 12 13  1  0
 13 14  2  0
 14 15  1  0
 15 16  1  0
 15 17  2  0
 17 18  1  0
 17 19  1  0
  6 20  1  0
 20 21  1  0
 20 22  1  0
 22 23  1  0
 23 24  1  0
 24 25  2  0
 24 26  1  0
 26 27  2  0
 27 28  1  0
 28 29  1  0
 29 30  2  0
 30 31  1  0
 31 32  1  0
 31 33  2  0
 33 34  1  0
 33 35  1  0
 22 36  1  0
 36 37  2  0
 36 38  1  0
 19 12  2  0
 35 28  2  0
  1 39  1  0
  4 40  1  1
  5 41  1  0
  6 42  1  1
 10 43  1  0
 11 44  1  0
 13 45  1  0
 14 46  1  0
 16 47  1  0
 18 48  1  0
 19 49  1  0
 20 50  1  1
 21 51  1  0
 22 52  1  1
 26 53  1  0
 27 54  1  0
 29 55  1  0
 30 56  1  0
 32 57  1  0
 34 58  1  0
 35 59  1  0
 38 60  1  0
M  END
>  <clase>  (1) 
Ác. Hidroxicinámico

>  <carga>  (1) 
0

>  <InChIKey>  (1) 
ZQGMKFHEDFDRLZ-BYCAZERCSA-N

$$$$
