Dicafeoilglucárico
     RDKit          3D

 60 61  0  0  0  0  0  0  0  0999 V2000
   -1.0242    3.8731   -0.6413 O   0  0  0  0  0  0  0  0  0  0  0  0
   -1.1984    3.2340    0.5383 C   0  0  0  0  0  0  0  0  0  0  0  0
   -2.3124    3.0003    0.9749 O   0  0  0  0  0  0  0  0  0  0  0  0
    0.1268    2.8546    1.1875 C   0  0  2  0  0  0  0  0  0  0  0  0
    1.2248    3.6631    0.7470 O   0  0  0  0  0  0  0  0  0  0  0  0
    0.4409    1.3634    0.9676 C   0  0  1  0  0  0  0  0  0  0  0  0
    0.9144    1.1616   -0.3864 O   0  0  0  0  0  0  0  0  0  0  0  0
   -0.0009    0.7888   -1.3101 C   0  0  0  0  0  0  0  0  0  0  0  0
   -1.2046    0.7017   -1.1250 O   0  0  0  0  0  0  0  0  0  0  0  0
    0.6252    0.4896   -2.6128 C   0  0  0  0  0  0  0  0  0  0  0  0
    1.9351    0.6334   -2.8690 C   0  0  0  0  0  0  0  0  0  0  0  0
    2.5425    0.3077   -4.1655 C   0  0  0  0  0  0  0  0  0  0  0  0
    3.5255    1.1655   -4.6858 C   0  0  0  0  0  0  0  0  0  0  0  0
    4.1497    0.8788   -5.9025 C   0  0  0  0  0  0  0  0  0  0  0  0
    3.7975   -0.2728   -6.5881 C   0  0  0  0  0  0  0  0  0  0  0  0
    4.4085   -0.5544   -7.7756 O   0  0  0  0  0  0  0  0  0  0  0  0
    2.8382   -1.1413   -6.0754 C   0  0  0  0  0  0  0  0  0  0  0  0
    2.5502   -2.2661   -6.7988 O   0  0  0  0  0  0  0  0  0  0  0  0
    2.2095   -0.8631   -4.8655 C   0  0  0  0  0  0  0  0  0  0  0  0
    1.5743    0.9131    1.9317 C   0  0  2  0  0  0  0  0  0  0  0  0
    2.8055    1.6014    1.6850 O   0  0  0  0  0  0  0  0  0  0  0  0
    1.8003   -0.6114    1.9748 C   0  0  1  0  0  0  0  0  0  0  0  0
    0.5617   -1.2055    2.4150 O   0  0  0  0  0  0  0  0  0  0  0  0
    0.6445   -2.5097    2.7690 C   0  0  0  0  0  0  0  0  0  0  0  0
    1.6702   -3.1685    2.8329 O   0  0  0  0  0  0  0  0  0  0  0  0
   -0.6825   -3.0752    3.0882 C   0  0  0  0  0  0  0  0  0  0  0  0
   -1.8373   -2.4023    2.9602 C   0  0  0  0  0  0  0  0  0  0  0  0
   -3.1604   -2.9757    3.2473 C   0  0  0  0  0  0  0  0  0  0  0  0
   -3.3761   -3.8724    4.3076 C   0  0  0  0  0  0  0  0  0  0  0  0
   -4.6544   -4.3747    4.5681 C   0  0  0  0  0  0  0  0  0  0  0  0
   -5.7157   -3.9702    3.7744 C   0  0  0  0  0  0  0  0  0  0  0  0
   -6.9641   -4.4595    4.0295 O   0  0  0  0  0  0  0  0  0  0  0  0
   -5.5205   -3.0711    2.7307 C   0  0  0  0  0  0  0  0  0  0  0  0
   -6.6130   -2.7091    1.9911 O   0  0  0  0  0  0  0  0  0  0  0  0
   -4.2516   -2.5659    2.4639 C   0  0  0  0  0  0  0  0  0  0  0  0
    2.2106   -1.1901    0.6222 C   0  0  0  0  0  0  0  0  0  0  0  0
    1.4788   -1.7781   -0.1630 O   0  0  0  0  0  0  0  0  0  0  0  0
    3.5152   -1.0243    0.3310 O   0  0  0  0  0  0  0  0  0  0  0  0
   -1.9408    4.0075   -0.9693 H   0  0  0  0  0  0  0  0  0  0  0  0
    0.0029    3.0643    2.2564 H   0  0  0  0  0  0  0  0  0  0  0  0
    1.0311    3.8677   -0.1924 H   0  0  0  0  0  0  0  0  0  0  0  0
   -0.4541    0.7595    1.1626 H   0  0  0  0  0  0  0  0  0  0  0  0
   -0.0729    0.1338   -3.3625 H   0  0  0  0  0  0  0  0  0  0  0  0
    2.6190    1.0171   -2.1146 H   0  0  0  0  0  0  0  0  0  0  0  0
    3.8097    2.0701   -4.1520 H   0  0  0  0  0  0  0  0  0  0  0  0
    4.9041    1.5459   -6.3084 H   0  0  0  0  0  0  0  0  0  0  0  0
    4.0102   -1.4002   -8.0629 H   0  0  0  0  0  0  0  0  0  0  0  0
    1.8840   -2.7814   -6.3118 H   0  0  0  0  0  0  0  0  0  0  0  0
    1.4763   -1.5527   -4.4586 H   0  0  0  0  0  0  0  0  0  0  0  0
    1.2631    1.2055    2.9436 H   0  0  0  0  0  0  0  0  0  0  0  0
    2.5927    2.5176    1.4060 H   0  0  0  0  0  0  0  0  0  0  0  0
    2.5923   -0.8407    2.6999 H   0  0  0  0  0  0  0  0  0  0  0  0
   -0.6495   -4.1100    3.4116 H   0  0  0  0  0  0  0  0  0  0  0  0
   -1.8469   -1.3775    2.5957 H   0  0  0  0  0  0  0  0  0  0  0  0
   -2.5573   -4.1838    4.9518 H   0  0  0  0  0  0  0  0  0  0  0  0
   -4.8195   -5.0696    5.3859 H   0  0  0  0  0  0  0  0  0  0  0  0
   -7.5344   -4.0380    3.3560 H   0  0  0  0  0  0  0  0  0  0  0  0
   -6.3227   -2.0784    1.3093 H   0  0  0  0  0  0  0  0  0  0  0  0
   -4.1006   -1.8639    1.6486 H   0  0  0  0  0  0  0  0  0  0  0  0
    3.6416   -1.4783   -0.5271 H   0  0  0  0  0  0  0  0  0  0  0  0
  1  2  1  0
  2  3  2  0
  2  4  1  0
  4  5  1  0
  4  6  1  0
  6  7  1  0
  7  8  1  0
  8  9  2  0
  8 10  1  0
 10 11  2  0
 11 12  1  0
 12 13  1  0
 13 14  2  0
 14 15  1  0
 15 16  1  0
 15 17  2  0
 17 18  1  0
 17 19  1  0
  6 20  1  0
 20 21  1  0
 20 22  1  0
 22 23  1  0
 23 24  1  0
 24 25  2  0
 24 26  1  0
 26 27  2  0
 27 28  1  0
 28 29  1  0
 29 30  2  0
 30 31  1  0
 31 32  1  0
 31 33  2  0
 33 34  1  0
 33 35  1  0
 22 36  1  0
 36 37  2  0
 36 38  1  0
 19 12  2  0
 35 28  2  0
  1 39  1  0
  4 40  1  1
  5 41  1  0
  6 42  1  1
 10 43  1  0
 11 44  1  0
 13 45  1  0
 14 46  1  0
 16 47  1  0
 18 48  1  0
 19 49  1  0
 20 50  1  1
 21 51  1  0
 22 52  1  1
 26 53  1  0
 27 54  1  0
 29 55  1  0
 30 56  1  0
 32 57  1  0
 34 58  1  0
 35 59  1  0
 38 60  1  0
M  END
>  <clase>  (1) 
Ác. Hidroxicinámico

>  <carga>  (1) 
0

>  <InChIKey>  (1) 
ZQGMKFHEDFDRLZ-BYCAZERCSA-N

>  <parte_planta>  (1) 
fruto

$$$$
