Peonidín-3-glucósido
     RDKit          3D

 56 59  0  0  0  0  0  0  0  0999 V2000
   -4.0869   -3.1205    4.1545 O   0  0  0  0  0  0  0  0  0  0  0  0
   -2.9072   -2.8652    3.5264 C   0  0  0  0  0  0  0  0  0  0  0  0
   -2.0056   -3.9175    3.4132 C   0  0  0  0  0  0  0  0  0  0  0  0
   -0.7826   -3.7063    2.7803 C   0  0  0  0  0  0  0  0  0  0  0  0
    0.1115   -4.7339    2.6625 O   0  0  0  0  0  0  0  0  0  0  0  0
   -0.4419   -2.4483    2.2501 C   0  0  0  0  0  0  0  0  0  0  0  0
    0.7598   -2.1949    1.5838 C   0  0  0  0  0  0  0  0  0  0  0  0
    1.0135   -0.9458    1.0288 C   0  0  0  0  0  0  0  0  0  0  0  0
    2.1767   -0.8730    0.2995 O   0  0  0  0  0  0  0  0  0  0  0  0
    2.0142   -0.4713   -1.0853 C   0  0  2  0  0  0  0  0  0  0  0  0
    0.6466   -0.4255   -1.5083 O   0  0  0  0  0  0  0  0  0  0  0  0
    0.2022   -1.4826   -2.3704 C   0  0  2  0  0  0  0  0  0  0  0  0
   -1.3299   -1.5488   -2.2441 C   0  0  0  0  0  0  0  0  0  0  0  0
   -1.7330   -1.8417   -0.8961 O   0  0  0  0  0  0  0  0  0  0  0  0
    0.8585   -2.8297   -2.0450 C   0  0  1  0  0  0  0  0  0  0  0  0
    0.3724   -3.8874   -2.8793 O   0  0  0  0  0  0  0  0  0  0  0  0
    2.3897   -2.7532   -2.1616 C   0  0  2  0  0  0  0  0  0  0  0  0
    2.9705   -3.6348   -1.1929 O   0  0  0  0  0  0  0  0  0  0  0  0
    2.9363   -1.3325   -1.9759 C   0  0  1  0  0  0  0  0  0  0  0  0
    3.0459   -0.7148   -3.2691 O   0  0  0  0  0  0  0  0  0  0  0  0
    0.1195    0.1205    1.2327 C   0  0  0  0  0  0  0  0  0  0  0  0
   -1.1181   -0.0934    1.9220 O   0  0  0  0  0  0  0  0  0  0  0  0
   -1.3754   -1.4102    2.3821 C   0  0  0  0  0  0  0  0  0  0  0  0
   -2.6016   -1.6128    3.0181 C   0  0  0  0  0  0  0  0  0  0  0  0
    0.3541    1.5348    0.9018 C   0  0  0  0  0  0  0  0  0  0  0  0
    1.6070    2.1522    1.0884 C   0  0  0  0  0  0  0  0  0  0  0  0
    1.7933    3.4992    0.7789 C   0  0  0  0  0  0  0  0  0  0  0  0
    0.7256    4.2398    0.2935 C   0  0  0  0  0  0  0  0  0  0  0  0
    0.9428    5.5563   -0.0007 O   0  0  0  0  0  0  0  0  0  0  0  0
   -0.5376    3.6717    0.1128 C   0  0  0  0  0  0  0  0  0  0  0  0
   -1.4928    4.5284   -0.3647 O   0  0  0  0  0  0  0  0  0  0  0  0
   -2.7968    3.9984   -0.5716 C   0  0  0  0  0  0  0  0  0  0  0  0
   -0.7179    2.3231    0.4255 C   0  0  0  0  0  0  0  0  0  0  0  0
   -4.6391   -2.3219    4.2263 H   0  0  0  0  0  0  0  0  0  0  0  0
   -2.2716   -4.8902    3.8228 H   0  0  0  0  0  0  0  0  0  0  0  0
   -0.2464   -5.5451    3.0693 H   0  0  0  0  0  0  0  0  0  0  0  0
    1.4874   -2.9970    1.4457 H   0  0  0  0  0  0  0  0  0  0  0  0
    2.3744    0.5616   -1.1467 H   0  0  0  0  0  0  0  0  0  0  0  0
    0.4287   -1.2002   -3.4059 H   0  0  0  0  0  0  0  0  0  0  0  0
   -1.7465   -2.3130   -2.9081 H   0  0  0  0  0  0  0  0  0  0  0  0
   -1.7699   -0.5797   -2.5014 H   0  0  0  0  0  0  0  0  0  0  0  0
   -2.6661   -2.1200   -0.9716 H   0  0  0  0  0  0  0  0  0  0  0  0
    0.5977   -3.1255   -1.0249 H   0  0  0  0  0  0  0  0  0  0  0  0
    0.6144   -3.6999   -3.8050 H   0  0  0  0  0  0  0  0  0  0  0  0
    2.7090   -3.1343   -3.1397 H   0  0  0  0  0  0  0  0  0  0  0  0
    2.6360   -4.5319   -1.3907 H   0  0  0  0  0  0  0  0  0  0  0  0
    3.9393   -1.3629   -1.5332 H   0  0  0  0  0  0  0  0  0  0  0  0
    3.8775   -1.0289   -3.6727 H   0  0  0  0  0  0  0  0  0  0  0  0
   -3.2831   -0.7746    3.1016 H   0  0  0  0  0  0  0  0  0  0  0  0
    2.4580    1.5991    1.4847 H   0  0  0  0  0  0  0  0  0  0  0  0
    2.7612    3.9747    0.9191 H   0  0  0  0  0  0  0  0  0  0  0  0
    0.0858    5.9044   -0.3169 H   0  0  0  0  0  0  0  0  0  0  0  0
   -3.4288    4.8049   -0.9555 H   0  0  0  0  0  0  0  0  0  0  0  0
   -2.7827    3.1993   -1.3201 H   0  0  0  0  0  0  0  0  0  0  0  0
   -3.2338    3.6504    0.3701 H   0  0  0  0  0  0  0  0  0  0  0  0
   -1.6901    1.8513    0.3041 H   0  0  0  0  0  0  0  0  0  0  0  0
  1  2  1  0
  2  3  2  0
  3  4  1  0
  4  5  1  0
  4  6  2  0
  6  7  1  0
  7  8  2  0
  8  9  1  0
  9 10  1  0
 10 11  1  0
 11 12  1  0
 12 13  1  0
 13 14  1  0
 12 15  1  0
 15 16  1  0
 15 17  1  0
 17 18  1  0
 17 19  1  0
 19 20  1  0
  8 21  1  0
 21 22  2  0
 22 23  1  0
 23 24  2  0
 21 25  1  0
 25 26  1  0
 26 27  2  0
 27 28  1  0
 28 29  1  0
 28 30  2  0
 30 31  1  0
 31 32  1  0
 30 33  1  0
 19 10  1  0
 33 25  2  0
 24  2  1  0
 23  6  1  0
  1 34  1  0
  3 35  1  0
  5 36  1  0
  7 37  1  0
 10 38  1  1
 12 39  1  6
 13 40  1  0
 13 41  1  0
 14 42  1  0
 15 43  1  1
 16 44  1  0
 17 45  1  6
 18 46  1  0
 19 47  1  1
 20 48  1  0
 24 49  1  0
 26 50  1  0
 27 51  1  0
 29 52  1  0
 32 53  1  0
 32 54  1  0
 32 55  1  0
 33 56  1  0
M  CHG  1  22   1
M  END
>  <clase>  (1) 
Antocianina

>  <carga>  (1) 
1

>  <InChIKey>  (1) 
ZZWPMFROUHHAKY-OUUKCGNVSA-O

>  <parte_planta>  (1) 
fruto

$$$$
