Delfinidin-3-glucósido
     RDKit          3D

 54 57  0  0  0  0  0  0  0  0999 V2000
   -2.9206   -3.1579    2.2269 O   0  0  0  0  0  0  0  0  0  0  0  0
   -1.6179   -2.8888    1.8524 C   0  0  0  0  0  0  0  0  0  0  0  0
   -0.6216   -3.7364    2.2221 C   0  0  0  0  0  0  0  0  0  0  0  0
    0.7828   -3.5366    1.8183 C   0  0  0  0  0  0  0  0  0  0  0  0
    1.3405   -4.5955    1.1533 O   0  0  0  0  0  0  0  0  0  0  0  0
    1.3369   -2.2970    1.8189 C   0  0  0  0  0  0  0  0  0  0  0  0
    0.7631   -1.3169    2.7946 C   0  0  0  0  0  0  0  0  0  0  0  0
    0.1576   -0.2854    2.1789 C   0  0  0  0  0  0  0  0  0  0  0  0
   -1.1708   -0.4227    1.7311 O   0  0  0  0  0  0  0  0  0  0  0  0
   -1.3916   -1.6474    0.9791 C   0  0  2  0  0  0  0  0  0  0  0  0
   -2.3752   -1.5062   -0.0367 O   0  0  0  0  0  0  0  0  0  0  0  0
   -1.7271   -1.2908   -1.3378 C   0  0  2  0  0  0  0  0  0  0  0  0
   -2.6962   -0.4699   -2.1955 C   0  0  0  0  0  0  0  0  0  0  0  0
   -2.7086    0.8674   -1.6780 O   0  0  0  0  0  0  0  0  0  0  0  0
   -1.3107   -2.6598   -1.9555 C   0  0  1  0  0  0  0  0  0  0  0  0
   -2.2216   -2.9893   -3.0157 O   0  0  0  0  0  0  0  0  0  0  0  0
    0.1468   -2.7211   -2.5206 C   0  0  2  0  0  0  0  0  0  0  0  0
    0.1374   -3.7642   -3.5317 O   0  0  0  0  0  0  0  0  0  0  0  0
    1.2602   -3.1206   -1.4822 C   0  0  1  0  0  0  0  0  0  0  0  0
    2.3653   -3.6647   -2.2134 O   0  0  0  0  0  0  0  0  0  0  0  0
    1.1776    0.3912    1.2824 C   0  0  0  0  0  0  0  0  0  0  0  0
    2.1315   -0.2654    0.6581 O   0  0  0  0  0  0  0  0  0  0  0  0
    1.9671   -1.6920    0.6071 C   0  0  0  0  0  0  0  0  0  0  0  0
    1.8810   -2.0071   -0.7017 C   0  0  0  0  0  0  0  0  0  0  0  0
    1.0967    1.8784    1.1835 C   0  0  0  0  0  0  0  0  0  0  0  0
    2.1710    2.5129    0.5337 C   0  0  0  0  0  0  0  0  0  0  0  0
    2.1725    3.8974    0.3885 C   0  0  0  0  0  0  0  0  0  0  0  0
    3.2047    4.5330   -0.2357 O   0  0  0  0  0  0  0  0  0  0  0  0
    1.1086    4.6465    0.8809 C   0  0  0  0  0  0  0  0  0  0  0  0
    1.0967    6.0058    0.7429 O   0  0  0  0  0  0  0  0  0  0  0  0
    0.0410    4.0172    1.5195 C   0  0  0  0  0  0  0  0  0  0  0  0
   -0.9751    4.8115    1.9735 O   0  0  0  0  0  0  0  0  0  0  0  0
    0.0220    2.6347    1.6802 C   0  0  0  0  0  0  0  0  0  0  0  0
   -3.5145   -2.5747    1.7081 H   0  0  0  0  0  0  0  0  0  0  0  0
   -0.8596   -4.6145    2.8200 H   0  0  0  0  0  0  0  0  0  0  0  0
    0.8672   -5.4195    1.3900 H   0  0  0  0  0  0  0  0  0  0  0  0
    0.2244   -1.7989    3.6162 H   0  0  0  0  0  0  0  0  0  0  0  0
   -0.4952   -1.8491    0.4163 H   0  0  0  0  0  0  0  0  0  0  0  0
   -0.8402   -0.6629   -1.1737 H   0  0  0  0  0  0  0  0  0  0  0  0
   -2.3650   -0.4132   -3.2364 H   0  0  0  0  0  0  0  0  0  0  0  0
   -3.7158   -0.8640   -2.1396 H   0  0  0  0  0  0  0  0  0  0  0  0
   -3.4205    1.3365   -2.1526 H   0  0  0  0  0  0  0  0  0  0  0  0
   -1.4292   -3.4621   -1.2187 H   0  0  0  0  0  0  0  0  0  0  0  0
   -1.7740   -3.6824   -3.5486 H   0  0  0  0  0  0  0  0  0  0  0  0
    0.3947   -1.7891   -3.0422 H   0  0  0  0  0  0  0  0  0  0  0  0
    0.8404   -3.5386   -4.1743 H   0  0  0  0  0  0  0  0  0  0  0  0
    0.8658   -3.9295   -0.8782 H   0  0  0  0  0  0  0  0  0  0  0  0
    2.0389   -4.4840   -2.6374 H   0  0  0  0  0  0  0  0  0  0  0  0
    2.3181   -1.2528   -1.3597 H   0  0  0  0  0  0  0  0  0  0  0  0
    3.0009    1.9258    0.1463 H   0  0  0  0  0  0  0  0  0  0  0  0
    3.9097    3.9121   -0.4735 H   0  0  0  0  0  0  0  0  0  0  0  0
    0.2673    6.3108    1.1586 H   0  0  0  0  0  0  0  0  0  0  0  0
   -1.6916    4.2689    2.3452 H   0  0  0  0  0  0  0  0  0  0  0  0
   -0.8272    2.1736    2.1745 H   0  0  0  0  0  0  0  0  0  0  0  0
  1  2  1  0
  2  3  2  3
  3  4  1  0
  4  5  1  0
  4  6  2  3
  6  7  1  0
  7  8  2  0
  8  9  1  0
  9 10  1  0
 10 11  1  0
 11 12  1  0
 12 13  1  0
 13 14  1  0
 12 15  1  0
 15 16  1  0
 15 17  1  0
 17 18  1  0
 17 19  1  0
 19 20  1  0
  8 21  1  0
 21 22  2  0
 22 23  1  0
 23 24  2  3
 21 25  1  0
 25 26  1  0
 26 27  2  0
 27 28  1  0
 27 29  1  0
 29 30  1  0
 29 31  2  0
 31 32  1  0
 31 33  1  0
 10  2  1  0
 24 19  1  0
 33 25  2  0
 23  6  1  0
  1 34  1  0
  3 35  1  0
  5 36  1  0
  7 37  1  0
 10 38  1  6
 12 39  1  1
 13 40  1  0
 13 41  1  0
 14 42  1  0
 15 43  1  1
 16 44  1  0
 17 45  1  6
 18 46  1  0
 19 47  1  1
 20 48  1  0
 24 49  1  0
 26 50  1  0
 28 51  1  0
 30 52  1  0
 32 53  1  0
 33 54  1  0
M  CHG  1  22   1
M  END
>  <clase>  (1) 
Antocianina

>  <carga>  (1) 
1

>  <InChIKey>  (1) 
DYWHGZQWWAWWLU-JIJMNNCASA-O

>  <estado_ionico>  (1) 
catión flavilio (pH 2–4)

>  <parte_planta>  (1) 
fruto

$$$$
Delfinidin-3-rutinosido
     RDKit          3D

 74 78  0  0  0  0  0  0  0  0999 V2000
   -1.4641    2.8412    3.9916 O   0  0  0  0  0  0  0  0  0  0  0  0
   -1.9845    2.3021    2.8259 C   0  0  0  0  0  0  0  0  0  0  0  0
   -2.6445    3.0687    1.9367 C   0  0  0  0  0  0  0  0  0  0  0  0
   -3.1617    2.5297    0.6997 C   0  0  0  0  0  0  0  0  0  0  0  0
   -4.5251    2.6393    0.5447 O   0  0  0  0  0  0  0  0  0  0  0  0
   -2.4199    1.8444   -0.1905 C   0  0  0  0  0  0  0  0  0  0  0  0
   -0.9578    1.7189   -0.1417 C   0  0  0  0  0  0  0  0  0  0  0  0
   -0.1727    1.0903    0.7538 C   0  0  0  0  0  0  0  0  0  0  0  0
   -0.4671    0.5789    1.9956 O   0  0  0  0  0  0  0  0  0  0  0  0
   -1.7279    0.8016    2.6529 C   0  0  2  0  0  0  0  0  0  0  0  0
   -2.8722    0.1121    2.1046 O   0  0  0  0  0  0  0  0  0  0  0  0
   -2.5695   -0.9237    1.1674 C   0  0  2  0  0  0  0  0  0  0  0  0
   -3.5894   -0.8997    0.0189 C   0  0  0  0  0  0  0  0  0  0  0  0
   -2.9124   -0.3535   -1.1396 O   0  0  0  0  0  0  0  0  0  0  0  0
   -3.0565    1.0656   -1.3460 C   0  0  2  0  0  0  0  0  0  0  0  0
   -2.2700    1.4306   -2.4922 O   0  0  0  0  0  0  0  0  0  0  0  0
   -2.3926    0.6073   -3.6455 C   0  0  1  0  0  0  0  0  0  0  0  0
   -3.6213    1.0195   -4.4498 C   0  0  0  0  0  0  0  0  0  0  0  0
   -1.0877    0.7911   -4.4506 C   0  0  2  0  0  0  0  0  0  0  0  0
   -1.0142   -0.1366   -5.5383 O   0  0  0  0  0  0  0  0  0  0  0  0
    0.2124    0.6256   -3.6108 C   0  0  2  0  0  0  0  0  0  0  0  0
    1.3281    0.9202   -4.4907 O   0  0  0  0  0  0  0  0  0  0  0  0
    0.4335   -0.7863   -3.0066 C   0  0  1  0  0  0  0  0  0  0  0  0
    1.7176   -1.2939   -3.4472 O   0  0  0  0  0  0  0  0  0  0  0  0
   -2.2942   -2.2523    1.8614 C   0  0  1  0  0  0  0  0  0  0  0  0
   -3.5139   -2.9234    2.1894 O   0  0  0  0  0  0  0  0  0  0  0  0
   -1.4173   -3.2009    1.0079 C   0  0  2  0  0  0  0  0  0  0  0  0
   -1.0631   -4.3257    1.8434 O   0  0  0  0  0  0  0  0  0  0  0  0
   -0.0791   -2.5877    0.4549 C   0  0  1  0  0  0  0  0  0  0  0  0
    0.8362   -3.6680    0.2515 O   0  0  0  0  0  0  0  0  0  0  0  0
    1.1757    0.6912    0.2042 C   0  0  0  0  0  0  0  0  0  0  0  0
    1.4074   -0.1757   -0.7503 O   0  0  0  0  0  0  0  0  0  0  0  0
    0.4037   -0.9001   -1.4630 C   0  0  0  0  0  0  0  0  0  0  0  0
   -0.1979   -1.9688   -0.9044 C   0  0  0  0  0  0  0  0  0  0  0  0
    2.3505    1.3451    0.8716 C   0  0  0  0  0  0  0  0  0  0  0  0
    2.2345    2.3907    1.7996 C   0  0  0  0  0  0  0  0  0  0  0  0
    3.3865    2.9340    2.3577 C   0  0  0  0  0  0  0  0  0  0  0  0
    3.2570    3.9405    3.2694 O   0  0  0  0  0  0  0  0  0  0  0  0
    4.6448    2.4580    2.0106 C   0  0  0  0  0  0  0  0  0  0  0  0
    5.7369    2.9842    2.6384 O   0  0  0  0  0  0  0  0  0  0  0  0
    4.7607    1.4499    1.0644 C   0  0  0  0  0  0  0  0  0  0  0  0
    5.9810    1.0089    0.6495 O   0  0  0  0  0  0  0  0  0  0  0  0
    3.6236    0.8783    0.5024 C   0  0  0  0  0  0  0  0  0  0  0  0
   -1.6882    3.7876    4.0535 H   0  0  0  0  0  0  0  0  0  0  0  0
   -2.8176    4.1260    2.1153 H   0  0  0  0  0  0  0  0  0  0  0  0
   -4.9108    3.0286    1.3513 H   0  0  0  0  0  0  0  0  0  0  0  0
   -0.4989    2.0950   -1.0545 H   0  0  0  0  0  0  0  0  0  0  0  0
   -1.6095    0.3753    3.6561 H   0  0  0  0  0  0  0  0  0  0  0  0
   -1.6423   -0.6864    0.6874 H   0  0  0  0  0  0  0  0  0  0  0  0
   -4.4944   -0.3270    0.2459 H   0  0  0  0  0  0  0  0  0  0  0  0
   -3.8782   -1.9159   -0.2641 H   0  0  0  0  0  0  0  0  0  0  0  0
   -4.1062    1.3146   -1.5304 H   0  0  0  0  0  0  0  0  0  0  0  0
   -2.4888   -0.4530   -3.3885 H   0  0  0  0  0  0  0  0  0  0  0  0
   -3.5731    2.0797   -4.7210 H   0  0  0  0  0  0  0  0  0  0  0  0
   -4.5330    0.8877   -3.8580 H   0  0  0  0  0  0  0  0  0  0  0  0
   -3.7229    0.4267   -5.3634 H   0  0  0  0  0  0  0  0  0  0  0  0
   -1.0604    1.7979   -4.8884 H   0  0  0  0  0  0  0  0  0  0  0  0
   -1.6366    0.1563   -6.2315 H   0  0  0  0  0  0  0  0  0  0  0  0
    0.2557    1.3891   -2.8359 H   0  0  0  0  0  0  0  0  0  0  0  0
    1.1051    0.5031   -5.3526 H   0  0  0  0  0  0  0  0  0  0  0  0
   -0.3050   -1.4769   -3.4281 H   0  0  0  0  0  0  0  0  0  0  0  0
    2.2148   -0.5208   -3.7901 H   0  0  0  0  0  0  0  0  0  0  0  0
   -1.7823   -2.0812    2.8165 H   0  0  0  0  0  0  0  0  0  0  0  0
   -3.9949   -2.3617    2.8283 H   0  0  0  0  0  0  0  0  0  0  0  0
   -2.0065   -3.6269    0.1866 H   0  0  0  0  0  0  0  0  0  0  0  0
   -1.9089   -4.6627    2.2078 H   0  0  0  0  0  0  0  0  0  0  0  0
    0.3785   -1.9231    1.1920 H   0  0  0  0  0  0  0  0  0  0  0  0
    0.6108   -4.3374    0.9362 H   0  0  0  0  0  0  0  0  0  0  0  0
   -0.7773   -2.5942   -1.5847 H   0  0  0  0  0  0  0  0  0  0  0  0
    1.2782    2.7989    2.1138 H   0  0  0  0  0  0  0  0  0  0  0  0
    4.1708    4.1797    3.5303 H   0  0  0  0  0  0  0  0  0  0  0  0
    6.4004    2.2703    2.7035 H   0  0  0  0  0  0  0  0  0  0  0  0
    6.5751    1.7807    0.5953 H   0  0  0  0  0  0  0  0  0  0  0  0
    3.7356    0.0789   -0.2294 H   0  0  0  0  0  0  0  0  0  0  0  0
  1  2  1  0
  2  3  2  3
  3  4  1  0
  4  5  1  0
  4  6  2  3
  6  7  1  0
  7  8  2  3
  8  9  1  0
  9 10  1  0
 10 11  1  0
 11 12  1  0
 12 13  1  0
 13 14  1  0
 14 15  1  0
 15 16  1  0
 16 17  1  0
 17 18  1  0
 17 19  1  0
 19 20  1  0
 19 21  1  0
 21 22  1  0
 21 23  1  0
 23 24  1  0
 12 25  1  0
 25 26  1  0
 25 27  1  0
 27 28  1  0
 27 29  1  0
 29 30  1  0
  8 31  1  0
 31 32  2  3
 32 33  1  0
 33 34  2  3
 31 35  1  0
 35 36  1  0
 36 37  2  0
 37 38  1  0
 37 39  1  0
 39 40  1  0
 39 41  2  0
 41 42  1  0
 41 43  1  0
 10  2  1  0
 34 29  1  0
 43 35  2  0
 15  6  1  0
 33 23  1  0
  1 44  1  0
  3 45  1  0
  5 46  1  0
  7 47  1  0
 10 48  1  1
 12 49  1  6
 13 50  1  0
 13 51  1  0
 15 52  1  6
 17 53  1  1
 18 54  1  0
 18 55  1  0
 18 56  1  0
 19 57  1  6
 20 58  1  0
 21 59  1  1
 22 60  1  0
 23 61  1  6
 24 62  1  0
 25 63  1  1
 26 64  1  0
 27 65  1  6
 28 66  1  0
 29 67  1  1
 30 68  1  0
 34 69  1  0
 36 70  1  0
 38 71  1  0
 40 72  1  0
 42 73  1  0
 43 74  1  0
M  CHG  1  32   1
M  END
>  <clase>  (2) 
Antocianina

>  <carga>  (2) 
1

>  <InChIKey>  (2) 
XBUSMTWUAOJGFD-TWDUISDLSA-O

>  <estado_ionico>  (2) 
catión flavilio (pH 2–4)

>  <parte_planta>  (2) 
fruto

$$$$
Cianidín-3-glucósido
     RDKit          3D

 53 56  0  0  0  0  0  0  0  0999 V2000
   -2.2285    1.6240    3.0492 O   0  0  0  0  0  0  0  0  0  0  0  0
   -1.5972    0.5454    2.4403 C   0  0  0  0  0  0  0  0  0  0  0  0
   -1.0991   -0.4607    3.2757 C   0  0  0  0  0  0  0  0  0  0  0  0
   -0.3094   -1.8285    3.0832 C   0  0  0  0  0  0  0  0  0  0  0  0
    0.4417   -2.2224    4.1650 O   0  0  0  0  0  0  0  0  0  0  0  0
   -0.1994   -2.5002    1.8974 C   0  0  0  0  0  0  0  0  0  0  0  0
   -0.7099   -1.6750    0.9234 C   0  0  0  0  0  0  0  0  0  0  0  0
    0.1834   -0.7507    0.5411 C   0  0  0  0  0  0  0  0  0  0  0  0
   -0.2607    0.5159    0.3144 O   0  0  0  0  0  0  0  0  0  0  0  0
   -1.5945    0.6030    0.8353 C   0  0  2  0  0  0  0  0  0  0  0  0
   -2.4780    1.0905   -0.1744 O   0  0  0  0  0  0  0  0  0  0  0  0
   -2.3075    0.2713   -1.4764 C   0  0  2  0  0  0  0  0  0  0  0  0
   -3.2320    0.9831   -2.4791 C   0  0  0  0  0  0  0  0  0  0  0  0
   -2.8605    2.3596   -2.5622 O   0  0  0  0  0  0  0  0  0  0  0  0
   -2.5620   -1.3683   -1.4600 C   0  0  1  0  0  0  0  0  0  0  0  0
   -3.5270   -1.7008   -2.4759 O   0  0  0  0  0  0  0  0  0  0  0  0
   -1.2641   -2.3278   -1.7579 C   0  0  2  0  0  0  0  0  0  0  0  0
   -1.3183   -2.7903   -3.1234 O   0  0  0  0  0  0  0  0  0  0  0  0
   -1.0190   -3.6821   -0.8179 C   0  0  1  0  0  0  0  0  0  0  0  0
   -1.1263   -4.8402   -1.6456 O   0  0  0  0  0  0  0  0  0  0  0  0
    1.6667   -1.2330    0.6472 C   0  0  0  0  0  0  0  0  0  0  0  0
    1.9484   -2.5197    0.8867 O   0  0  0  0  0  0  0  0  0  0  0  0
    0.7577   -3.3146    1.1374 C   0  0  0  0  0  0  0  0  0  0  0  0
    0.3656   -3.8506   -0.0740 C   0  0  0  0  0  0  0  0  0  0  0  0
    2.7682   -0.2608    0.4171 C   0  0  0  0  0  0  0  0  0  0  0  0
    4.0063   -0.8036    0.0228 C   0  0  0  0  0  0  0  0  0  0  0  0
    5.1114    0.0247   -0.2047 C   0  0  0  0  0  0  0  0  0  0  0  0
    4.9749    1.3931   -0.0222 C   0  0  0  0  0  0  0  0  0  0  0  0
    6.0073    2.2618   -0.2223 O   0  0  0  0  0  0  0  0  0  0  0  0
    3.7564    1.9254    0.3898 C   0  0  0  0  0  0  0  0  0  0  0  0
    3.6282    3.2694    0.5876 O   0  0  0  0  0  0  0  0  0  0  0  0
    2.6511    1.1154    0.6188 C   0  0  0  0  0  0  0  0  0  0  0  0
   -2.5737    2.2348    2.3681 H   0  0  0  0  0  0  0  0  0  0  0  0
   -1.2657   -0.2692    4.3413 H   0  0  0  0  0  0  0  0  0  0  0  0
    0.2765   -1.6373    4.9288 H   0  0  0  0  0  0  0  0  0  0  0  0
   -1.7792   -1.8260    0.9594 H   0  0  0  0  0  0  0  0  0  0  0  0
   -2.2283   -0.2631    0.8342 H   0  0  0  0  0  0  0  0  0  0  0  0
   -1.2776    0.4566   -1.8030 H   0  0  0  0  0  0  0  0  0  0  0  0
   -4.2773    0.9386   -2.1573 H   0  0  0  0  0  0  0  0  0  0  0  0
   -3.1411    0.5589   -3.4828 H   0  0  0  0  0  0  0  0  0  0  0  0
   -2.9473    2.7210   -1.6607 H   0  0  0  0  0  0  0  0  0  0  0  0
   -3.0436   -1.6363   -0.5203 H   0  0  0  0  0  0  0  0  0  0  0  0
   -3.8652   -2.6031   -2.3125 H   0  0  0  0  0  0  0  0  0  0  0  0
   -0.3628   -1.7142   -1.7098 H   0  0  0  0  0  0  0  0  0  0  0  0
   -2.0007   -2.2549   -3.5855 H   0  0  0  0  0  0  0  0  0  0  0  0
   -1.8384   -3.7683   -0.0968 H   0  0  0  0  0  0  0  0  0  0  0  0
   -1.1679   -4.5147   -2.5734 H   0  0  0  0  0  0  0  0  0  0  0  0
    1.1726   -4.1543   -0.7405 H   0  0  0  0  0  0  0  0  0  0  0  0
    4.1210   -1.8801   -0.1075 H   0  0  0  0  0  0  0  0  0  0  0  0
    6.0573   -0.4121   -0.5133 H   0  0  0  0  0  0  0  0  0  0  0  0
    6.7974    1.7653   -0.5010 H   0  0  0  0  0  0  0  0  0  0  0  0
    4.5070    3.6477    0.3736 H   0  0  0  0  0  0  0  0  0  0  0  0
    1.7447    1.5936    0.9724 H   0  0  0  0  0  0  0  0  0  0  0  0
  1  2  1  0
  2  3  2  3
  3  4  1  0
  4  5  1  0
  4  6  2  3
  6  7  1  0
  7  8  2  0
  8  9  1  0
  9 10  1  0
 10 11  1  0
 11 12  1  0
 12 13  1  0
 13 14  1  0
 12 15  1  0
 15 16  1  0
 15 17  1  0
 17 18  1  0
 17 19  1  0
 19 20  1  0
  8 21  1  0
 21 22  2  0
 22 23  1  0
 23 24  2  3
 21 25  1  0
 25 26  1  0
 26 27  2  0
 27 28  1  0
 28 29  1  0
 28 30  2  0
 30 31  1  0
 30 32  1  0
 10  2  1  0
 24 19  1  0
 32 25  2  0
 23  6  1  0
  1 33  1  0
  3 34  1  0
  5 35  1  0
  7 36  1  0
 10 37  1  6
 12 38  1  6
 13 39  1  0
 13 40  1  0
 14 41  1  0
 15 42  1  1
 16 43  1  0
 17 44  1  6
 18 45  1  0
 19 46  1  1
 20 47  1  0
 24 48  1  0
 26 49  1  0
 27 50  1  0
 29 51  1  0
 31 52  1  0
 32 53  1  0
M  CHG  1  22   1
M  END
>  <clase>  (3) 
Antocianina

>  <carga>  (3) 
1

>  <InChIKey>  (3) 
IXCNBWVNVQJCIF-ZRQOLRHFSA-O

>  <estado_ionico>  (3) 
catión flavilio (pH 2–4)

>  <parte_planta>  (3) 
fruto

$$$$
Cianidín-3-rutinosido
     RDKit          3D

 73 77  0  0  0  0  0  0  0  0999 V2000
   -2.0210   -2.4022    4.5425 O   0  0  0  0  0  0  0  0  0  0  0  0
   -1.1624   -1.4112    4.0923 C   0  0  0  0  0  0  0  0  0  0  0  0
    0.1525   -1.4435    4.3889 C   0  0  0  0  0  0  0  0  0  0  0  0
    1.0849   -0.4605    3.8808 C   0  0  0  0  0  0  0  0  0  0  0  0
    1.7924    0.2308    4.8350 O   0  0  0  0  0  0  0  0  0  0  0  0
    1.1956   -0.1473    2.5767 C   0  0  0  0  0  0  0  0  0  0  0  0
    0.5479   -0.9182    1.5145 C   0  0  0  0  0  0  0  0  0  0  0  0
   -0.7462   -1.0014    1.1648 C   0  0  0  0  0  0  0  0  0  0  0  0
   -1.8759   -0.6342    1.8545 O   0  0  0  0  0  0  0  0  0  0  0  0
   -1.8450   -0.3141    3.2623 C   0  0  2  0  0  0  0  0  0  0  0  0
   -1.3692    0.9998    3.6244 O   0  0  0  0  0  0  0  0  0  0  0  0
   -1.0486    1.8638    2.5334 C   0  0  2  0  0  0  0  0  0  0  0  0
    0.2481    2.6271    2.8439 C   0  0  0  0  0  0  0  0  0  0  0  0
    1.2283    2.2496    1.8621 O   0  0  0  0  0  0  0  0  0  0  0  0
    2.0170    1.0563    2.0718 C   0  0  2  0  0  0  0  0  0  0  0  0
    2.4025    0.7631    0.7207 O   0  0  0  0  0  0  0  0  0  0  0  0
    3.6541    0.1710    0.3935 C   0  0  1  0  0  0  0  0  0  0  0  0
    4.3581   -0.5790    1.5272 C   0  0  0  0  0  0  0  0  0  0  0  0
    3.3529   -0.7878   -0.7929 C   0  0  2  0  0  0  0  0  0  0  0  0
    4.5552   -1.4387   -1.2225 O   0  0  0  0  0  0  0  0  0  0  0  0
    2.6586   -0.1778   -2.0320 C   0  0  2  0  0  0  0  0  0  0  0  0
    3.7341    0.4039   -2.8261 O   0  0  0  0  0  0  0  0  0  0  0  0
    1.5546    0.8981   -1.8974 C   0  0  1  0  0  0  0  0  0  0  0  0
    1.2283    1.2477   -3.2820 O   0  0  0  0  0  0  0  0  0  0  0  0
   -2.2717    2.6571    2.0774 C   0  0  1  0  0  0  0  0  0  0  0  0
   -2.4853    3.8062    2.9022 O   0  0  0  0  0  0  0  0  0  0  0  0
   -2.1794    3.1144    0.6011 C   0  0  2  0  0  0  0  0  0  0  0  0
   -3.4456    3.7212    0.2577 O   0  0  0  0  0  0  0  0  0  0  0  0
   -1.9149    1.9720   -0.4450 C   0  0  1  0  0  0  0  0  0  0  0  0
   -2.4916    2.3682   -1.6936 O   0  0  0  0  0  0  0  0  0  0  0  0
   -0.9092   -1.3034   -0.3118 C   0  0  0  0  0  0  0  0  0  0  0  0
   -0.4341   -0.5880   -1.3134 O   0  0  0  0  0  0  0  0  0  0  0  0
    0.2296    0.6667   -1.1331 C   0  0  0  0  0  0  0  0  0  0  0  0
   -0.4732    1.7635   -0.7839 C   0  0  0  0  0  0  0  0  0  0  0  0
   -1.6994   -2.5400   -0.6249 C   0  0  0  0  0  0  0  0  0  0  0  0
   -2.0561   -2.7376   -1.9702 C   0  0  0  0  0  0  0  0  0  0  0  0
   -2.7762   -3.8725   -2.3520 C   0  0  0  0  0  0  0  0  0  0  0  0
   -3.1296   -4.8088   -1.3914 C   0  0  0  0  0  0  0  0  0  0  0  0
   -3.7862   -5.9343   -1.7869 O   0  0  0  0  0  0  0  0  0  0  0  0
   -2.8023   -4.6045   -0.0557 C   0  0  0  0  0  0  0  0  0  0  0  0
   -3.2069   -5.4801    0.9080 O   0  0  0  0  0  0  0  0  0  0  0  0
   -2.0751   -3.4864    0.3383 C   0  0  0  0  0  0  0  0  0  0  0  0
   -1.5446   -3.0176    5.1293 H   0  0  0  0  0  0  0  0  0  0  0  0
    0.5734   -2.2289    5.0107 H   0  0  0  0  0  0  0  0  0  0  0  0
    1.4682   -0.0158    5.7213 H   0  0  0  0  0  0  0  0  0  0  0  0
    1.2724   -1.3540    0.8407 H   0  0  0  0  0  0  0  0  0  0  0  0
   -2.8987   -0.3008    3.5654 H   0  0  0  0  0  0  0  0  0  0  0  0
   -0.8018    1.2673    1.6790 H   0  0  0  0  0  0  0  0  0  0  0  0
    0.0999    3.7034    2.7166 H   0  0  0  0  0  0  0  0  0  0  0  0
    0.6330    2.4576    3.8536 H   0  0  0  0  0  0  0  0  0  0  0  0
    2.8703    1.3228    2.7002 H   0  0  0  0  0  0  0  0  0  0  0  0
    4.3221    0.9691    0.0495 H   0  0  0  0  0  0  0  0  0  0  0  0
    5.2999   -1.0205    1.1862 H   0  0  0  0  0  0  0  0  0  0  0  0
    3.7313   -1.3820    1.9270 H   0  0  0  0  0  0  0  0  0  0  0  0
    4.6018    0.0910    2.3568 H   0  0  0  0  0  0  0  0  0  0  0  0
    2.7096   -1.5945   -0.4391 H   0  0  0  0  0  0  0  0  0  0  0  0
    4.9182   -0.8753   -1.9415 H   0  0  0  0  0  0  0  0  0  0  0  0
    2.2830   -1.0021   -2.6522 H   0  0  0  0  0  0  0  0  0  0  0  0
    3.3052    0.8651   -3.5788 H   0  0  0  0  0  0  0  0  0  0  0  0
    2.0334    1.8077   -1.5122 H   0  0  0  0  0  0  0  0  0  0  0  0
    0.5497    0.6245   -3.6085 H   0  0  0  0  0  0  0  0  0  0  0  0
   -3.1763    2.0456    2.1863 H   0  0  0  0  0  0  0  0  0  0  0  0
   -2.6354    3.4892    3.8142 H   0  0  0  0  0  0  0  0  0  0  0  0
   -1.4359    3.9138    0.4960 H   0  0  0  0  0  0  0  0  0  0  0  0
   -3.6212    4.3785    0.9650 H   0  0  0  0  0  0  0  0  0  0  0  0
   -2.4270    1.0541   -0.1494 H   0  0  0  0  0  0  0  0  0  0  0  0
   -3.2371    2.9670   -1.4570 H   0  0  0  0  0  0  0  0  0  0  0  0
    0.0591    2.7116   -0.8889 H   0  0  0  0  0  0  0  0  0  0  0  0
   -1.7784   -2.0112   -2.7330 H   0  0  0  0  0  0  0  0  0  0  0  0
   -3.0475   -4.0313   -3.3934 H   0  0  0  0  0  0  0  0  0  0  0  0
   -3.3917   -6.6875   -1.3094 H   0  0  0  0  0  0  0  0  0  0  0  0
   -4.0421   -5.8821    0.5997 H   0  0  0  0  0  0  0  0  0  0  0  0
   -1.8356   -3.3826    1.3929 H   0  0  0  0  0  0  0  0  0  0  0  0
  1  2  1  0
  2  3  2  3
  3  4  1  0
  4  5  1  0
  4  6  2  3
  6  7  1  0
  7  8  2  3
  8  9  1  0
  9 10  1  0
 10 11  1  0
 11 12  1  0
 12 13  1  0
 13 14  1  0
 14 15  1  0
 15 16  1  0
 16 17  1  0
 17 18  1  0
 17 19  1  0
 19 20  1  0
 19 21  1  0
 21 22  1  0
 21 23  1  0
 23 24  1  0
 12 25  1  0
 25 26  1  0
 25 27  1  0
 27 28  1  0
 27 29  1  0
 29 30  1  0
  8 31  1  0
 31 32  2  3
 32 33  1  0
 33 34  2  3
 31 35  1  0
 35 36  1  0
 36 37  2  0
 37 38  1  0
 38 39  1  0
 38 40  2  0
 40 41  1  0
 40 42  1  0
 10  2  1  0
 34 29  1  0
 42 35  2  0
 15  6  1  0
 33 23  1  0
  1 43  1  0
  3 44  1  0
  5 45  1  0
  7 46  1  0
 10 47  1  1
 12 48  1  6
 13 49  1  0
 13 50  1  0
 15 51  1  1
 17 52  1  6
 18 53  1  0
 18 54  1  0
 18 55  1  0
 19 56  1  1
 20 57  1  0
 21 58  1  6
 22 59  1  0
 23 60  1  1
 24 61  1  0
 25 62  1  6
 26 63  1  0
 27 64  1  1
 28 65  1  0
 29 66  1  1
 30 67  1  0
 34 68  1  0
 36 69  1  0
 37 70  1  0
 39 71  1  0
 41 72  1  0
 42 73  1  0
M  CHG  1  32   1
M  END
>  <clase>  (4) 
Antocianina

>  <carga>  (4) 
1

>  <InChIKey>  (4) 
GMKGDVVEVPGBRQ-VEBGNIEMSA-O

>  <estado_ionico>  (4) 
catión flavilio (pH 2–4)

>  <parte_planta>  (4) 
fruto

$$$$
Petunidín-3-glucósido
     RDKit          3D

 57 60  0  0  0  0  0  0  0  0999 V2000
   -2.2752   -3.6404    1.8344 O   0  0  0  0  0  0  0  0  0  0  0  0
   -1.0686   -3.2382    1.2928 C   0  0  0  0  0  0  0  0  0  0  0  0
    0.0588   -3.9606    1.5134 C   0  0  0  0  0  0  0  0  0  0  0  0
    1.3371   -3.5404    0.9248 C   0  0  0  0  0  0  0  0  0  0  0  0
    1.8798   -4.4086    0.0181 O   0  0  0  0  0  0  0  0  0  0  0  0
    1.7164   -2.2482    1.0319 C   0  0  0  0  0  0  0  0  0  0  0  0
    1.1594   -1.4826    2.1712 C   0  0  0  0  0  0  0  0  0  0  0  0
    0.3260   -0.5089    1.7552 C   0  0  0  0  0  0  0  0  0  0  0  0
   -0.8852   -0.7446    1.1024 O   0  0  0  0  0  0  0  0  0  0  0  0
   -1.0822   -1.9958    0.3898 C   0  0  2  0  0  0  0  0  0  0  0  0
   -2.2772   -1.9097   -0.3829 O   0  0  0  0  0  0  0  0  0  0  0  0
   -2.0797   -2.1083   -1.8156 C   0  0  2  0  0  0  0  0  0  0  0  0
   -2.1214   -3.6008   -2.1685 C   0  0  0  0  0  0  0  0  0  0  0  0
   -0.9918   -4.2937   -1.6560 O   0  0  0  0  0  0  0  0  0  0  0  0
   -0.9650   -1.2162   -2.4980 C   0  0  1  0  0  0  0  0  0  0  0  0
   -0.6108   -0.1023   -1.6600 O   0  0  0  0  0  0  0  0  0  0  0  0
    0.3147   -1.8168   -3.1652 C   0  0  2  0  0  0  0  0  0  0  0  0
   -0.0456   -2.7981   -4.1522 O   0  0  0  0  0  0  0  0  0  0  0  0
    1.4582   -2.4130   -2.2773 C   0  0  1  0  0  0  0  0  0  0  0  0
    2.4872   -2.8864   -3.1538 O   0  0  0  0  0  0  0  0  0  0  0  0
    1.2925    0.4588    1.0594 C   0  0  0  0  0  0  0  0  0  0  0  0
    2.3034    0.0320    0.3208 O   0  0  0  0  0  0  0  0  0  0  0  0
    2.2383   -1.3684   -0.0453 C   0  0  0  0  0  0  0  0  0  0  0  0
    2.1378   -1.4313   -1.3826 C   0  0  0  0  0  0  0  0  0  0  0  0
    1.0689    1.9119    1.3003 C   0  0  0  0  0  0  0  0  0  0  0  0
    1.9709    2.7822    0.6763 C   0  0  0  0  0  0  0  0  0  0  0  0
    1.8209    4.1479    0.8475 C   0  0  0  0  0  0  0  0  0  0  0  0
    2.6995    4.9910    0.2359 O   0  0  0  0  0  0  0  0  0  0  0  0
    0.7907    4.6541    1.6297 C   0  0  0  0  0  0  0  0  0  0  0  0
    0.6948    6.0141    1.7610 O   0  0  0  0  0  0  0  0  0  0  0  0
   -0.1185    3.8026    2.2617 C   0  0  0  0  0  0  0  0  0  0  0  0
   -1.0822    4.4373    2.9980 O   0  0  0  0  0  0  0  0  0  0  0  0
   -2.0186    3.6235    3.6963 C   0  0  0  0  0  0  0  0  0  0  0  0
    0.0208    2.4212    2.0942 C   0  0  0  0  0  0  0  0  0  0  0  0
   -2.9770   -3.1059    1.4098 H   0  0  0  0  0  0  0  0  0  0  0  0
    0.0338   -4.8616    2.1200 H   0  0  0  0  0  0  0  0  0  0  0  0
    1.3574   -5.2346    0.0080 H   0  0  0  0  0  0  0  0  0  0  0  0
    1.9972   -1.2234    2.8321 H   0  0  0  0  0  0  0  0  0  0  0  0
   -0.2813   -2.0888   -0.3251 H   0  0  0  0  0  0  0  0  0  0  0  0
   -3.0213   -1.7108   -2.2202 H   0  0  0  0  0  0  0  0  0  0  0  0
   -3.0073   -4.0577   -1.7140 H   0  0  0  0  0  0  0  0  0  0  0  0
   -2.1767   -3.7501   -3.2505 H   0  0  0  0  0  0  0  0  0  0  0  0
   -1.0801   -5.2145   -1.9701 H   0  0  0  0  0  0  0  0  0  0  0  0
   -1.4910   -0.7673   -3.3545 H   0  0  0  0  0  0  0  0  0  0  0  0
   -1.4484    0.3648   -1.4617 H   0  0  0  0  0  0  0  0  0  0  0  0
    0.7846   -0.9977   -3.7303 H   0  0  0  0  0  0  0  0  0  0  0  0
   -0.2317   -2.3253   -4.9861 H   0  0  0  0  0  0  0  0  0  0  0  0
    1.0854   -3.2863   -1.7642 H   0  0  0  0  0  0  0  0  0  0  0  0
    2.0279   -3.4307   -3.8254 H   0  0  0  0  0  0  0  0  0  0  0  0
    2.4872   -0.5431   -1.9079 H   0  0  0  0  0  0  0  0  0  0  0  0
    2.7863    2.4090    0.0594 H   0  0  0  0  0  0  0  0  0  0  0  0
    2.4176    5.8935    0.4949 H   0  0  0  0  0  0  0  0  0  0  0  0
   -0.0753    6.1708    2.3448 H   0  0  0  0  0  0  0  0  0  0  0  0
   -2.6180    3.0292    2.9989 H   0  0  0  0  0  0  0  0  0  0  0  0
   -1.5147    2.9841    4.4285 H   0  0  0  0  0  0  0  0  0  0  0  0
   -2.6975    4.2864    4.2410 H   0  0  0  0  0  0  0  0  0  0  0  0
   -0.6823    1.7478    2.5726 H   0  0  0  0  0  0  0  0  0  0  0  0
  1  2  1  0
  2  3  2  3
  3  4  1  0
  4  5  1  0
  4  6  2  3
  6  7  1  0
  7  8  2  0
  8  9  1  0
  9 10  1  0
 10 11  1  0
 11 12  1  0
 12 13  1  0
 13 14  1  0
 12 15  1  0
 15 16  1  0
 15 17  1  0
 17 18  1  0
 17 19  1  0
 19 20  1  0
  8 21  1  0
 21 22  2  0
 22 23  1  0
 23 24  2  3
 21 25  1  0
 25 26  1  0
 26 27  2  0
 27 28  1  0
 27 29  1  0
 29 30  1  0
 29 31  2  0
 31 32  1  0
 32 33  1  0
 31 34  1  0
 10  2  1  0
 24 19  1  0
 34 25  2  0
 23  6  1  0
  1 35  1  0
  3 36  1  0
  5 37  1  0
  7 38  1  0
 10 39  1  6
 12 40  1  6
 13 41  1  0
 13 42  1  0
 14 43  1  0
 15 44  1  6
 16 45  1  0
 17 46  1  6
 18 47  1  0
 19 48  1  1
 20 49  1  0
 24 50  1  0
 26 51  1  0
 28 52  1  0
 30 53  1  0
 33 54  1  0
 33 55  1  0
 33 56  1  0
 34 57  1  0
M  CHG  1  22   1
M  END
>  <clase>  (5) 
Antocianina

>  <carga>  (5) 
1

>  <InChIKey>  (5) 
QXIQXAOTBGISST-ALXQXQAHSA-O

>  <estado_ionico>  (5) 
catión flavilio (pH 2–4)

>  <parte_planta>  (5) 
fruto

$$$$
Petunidín-3-rutinosido
     RDKit          3D

 77 81  0  0  0  0  0  0  0  0999 V2000
    0.7533   -4.6775   -2.1857 O   0  0  0  0  0  0  0  0  0  0  0  0
    1.0599   -3.3270   -2.2583 C   0  0  0  0  0  0  0  0  0  0  0  0
    0.6550   -2.5782   -3.3022 C   0  0  0  0  0  0  0  0  0  0  0  0
    0.9430   -1.1653   -3.4126 C   0  0  0  0  0  0  0  0  0  0  0  0
    1.6041   -0.8856   -4.5818 O   0  0  0  0  0  0  0  0  0  0  0  0
    0.6837   -0.2700   -2.4349 C   0  0  0  0  0  0  0  0  0  0  0  0
   -0.1626   -0.5602   -1.2653 C   0  0  0  0  0  0  0  0  0  0  0  0
    0.0331   -1.3895   -0.2224 C   0  0  0  0  0  0  0  0  0  0  0  0
    0.9705   -2.3742   -0.0253 O   0  0  0  0  0  0  0  0  0  0  0  0
    1.8658   -2.7971   -1.0712 C   0  0  2  0  0  0  0  0  0  0  0  0
    2.8588   -1.8360   -1.4697 O   0  0  0  0  0  0  0  0  0  0  0  0
    3.1176   -0.7892   -0.5335 C   0  0  2  0  0  0  0  0  0  0  0  0
    3.3790    0.5128   -1.3017 C   0  0  0  0  0  0  0  0  0  0  0  0
    2.1506    1.2893   -1.2530 O   0  0  0  0  0  0  0  0  0  0  0  0
    1.2695    1.1447   -2.3824 C   0  0  2  0  0  0  0  0  0  0  0  0
    0.1274    1.9911   -2.1762 O   0  0  0  0  0  0  0  0  0  0  0  0
    0.3843    3.3219   -1.7397 C   0  0  1  0  0  0  0  0  0  0  0  0
    0.5660    4.2229   -2.9571 C   0  0  0  0  0  0  0  0  0  0  0  0
   -0.8262    3.7519   -0.8778 C   0  0  2  0  0  0  0  0  0  0  0  0
   -0.5905    5.0117   -0.2420 O   0  0  0  0  0  0  0  0  0  0  0  0
   -1.2164    2.7366    0.2373 C   0  0  2  0  0  0  0  0  0  0  0  0
   -2.4113    3.2418    0.8857 O   0  0  0  0  0  0  0  0  0  0  0  0
   -0.1364    2.5085    1.3267 C   0  0  1  0  0  0  0  0  0  0  0  0
   -0.6493    2.9445    2.6087 O   0  0  0  0  0  0  0  0  0  0  0  0
    4.0954   -1.1947    0.5667 C   0  0  1  0  0  0  0  0  0  0  0  0
    5.4408   -1.0023    0.1225 O   0  0  0  0  0  0  0  0  0  0  0  0
    3.8839   -0.4076    1.8884 C   0  0  2  0  0  0  0  0  0  0  0  0
    4.6814   -1.0714    2.8927 O   0  0  0  0  0  0  0  0  0  0  0  0
    2.4038   -0.3083    2.4090 C   0  0  1  0  0  0  0  0  0  0  0  0
    2.4559   -0.0733    3.8181 O   0  0  0  0  0  0  0  0  0  0  0  0
   -0.7625   -1.0194    1.0042 C   0  0  0  0  0  0  0  0  0  0  0  0
   -0.5939    0.0453    1.7526 O   0  0  0  0  0  0  0  0  0  0  0  0
    0.3788    1.0613    1.5058 C   0  0  0  0  0  0  0  0  0  0  0  0
    1.6632    0.8779    1.8708 C   0  0  0  0  0  0  0  0  0  0  0  0
   -1.8189   -2.0084    1.4045 C   0  0  0  0  0  0  0  0  0  0  0  0
   -2.1520   -3.1319    0.6378 C   0  0  0  0  0  0  0  0  0  0  0  0
   -3.1566   -3.9755    1.0867 C   0  0  0  0  0  0  0  0  0  0  0  0
   -3.4831   -5.0659    0.3357 O   0  0  0  0  0  0  0  0  0  0  0  0
   -3.8261   -3.7199    2.2774 C   0  0  0  0  0  0  0  0  0  0  0  0
   -4.8074   -4.5948    2.6614 O   0  0  0  0  0  0  0  0  0  0  0  0
   -3.5088   -2.6059    3.0553 C   0  0  0  0  0  0  0  0  0  0  0  0
   -4.2443   -2.4722    4.2011 O   0  0  0  0  0  0  0  0  0  0  0  0
   -3.9518   -1.3550    5.0347 C   0  0  0  0  0  0  0  0  0  0  0  0
   -2.5012   -1.7469    2.6120 C   0  0  0  0  0  0  0  0  0  0  0  0
    0.3543   -4.9651   -3.0275 H   0  0  0  0  0  0  0  0  0  0  0  0
    0.1245   -3.0190   -4.1413 H   0  0  0  0  0  0  0  0  0  0  0  0
    1.5213    0.0508   -4.8186 H   0  0  0  0  0  0  0  0  0  0  0  0
   -1.0191    0.1110   -1.2324 H   0  0  0  0  0  0  0  0  0  0  0  0
    2.4335   -3.6369   -0.6539 H   0  0  0  0  0  0  0  0  0  0  0  0
    2.2037   -0.5919   -0.0126 H   0  0  0  0  0  0  0  0  0  0  0  0
    3.6963    0.3563   -2.3378 H   0  0  0  0  0  0  0  0  0  0  0  0
    4.1265    1.1236   -0.7876 H   0  0  0  0  0  0  0  0  0  0  0  0
    1.7849    1.4514   -3.2969 H   0  0  0  0  0  0  0  0  0  0  0  0
    1.2891    3.3955   -1.1277 H   0  0  0  0  0  0  0  0  0  0  0  0
    1.4121    3.8834   -3.5638 H   0  0  0  0  0  0  0  0  0  0  0  0
    0.7500    5.2612   -2.6668 H   0  0  0  0  0  0  0  0  0  0  0  0
   -0.3175    4.1891   -3.6039 H   0  0  0  0  0  0  0  0  0  0  0  0
   -1.7094    3.8787   -1.5179 H   0  0  0  0  0  0  0  0  0  0  0  0
   -0.6424    5.7125   -0.9202 H   0  0  0  0  0  0  0  0  0  0  0  0
   -1.5163    1.7947   -0.2157 H   0  0  0  0  0  0  0  0  0  0  0  0
   -2.3037    4.2187    0.9202 H   0  0  0  0  0  0  0  0  0  0  0  0
    0.7218    3.1574    1.1209 H   0  0  0  0  0  0  0  0  0  0  0  0
   -1.6262    2.9592    2.5168 H   0  0  0  0  0  0  0  0  0  0  0  0
    3.9943   -2.2672    0.7732 H   0  0  0  0  0  0  0  0  0  0  0  0
    6.0165   -1.3727    0.8212 H   0  0  0  0  0  0  0  0  0  0  0  0
    4.3197    0.5945    1.7829 H   0  0  0  0  0  0  0  0  0  0  0  0
    4.9657   -0.3869    3.5303 H   0  0  0  0  0  0  0  0  0  0  0  0
    1.8682   -1.2497    2.2622 H   0  0  0  0  0  0  0  0  0  0  0  0
    2.9382   -0.8318    4.2051 H   0  0  0  0  0  0  0  0  0  0  0  0
    2.2814    1.7771    1.8698 H   0  0  0  0  0  0  0  0  0  0  0  0
   -1.6613   -3.3810   -0.2988 H   0  0  0  0  0  0  0  0  0  0  0  0
   -4.1964   -5.5180    0.8346 H   0  0  0  0  0  0  0  0  0  0  0  0
   -5.1509   -4.2480    3.5104 H   0  0  0  0  0  0  0  0  0  0  0  0
   -4.1460   -0.4131    4.5113 H   0  0  0  0  0  0  0  0  0  0  0  0
   -2.9214   -1.3982    5.4025 H   0  0  0  0  0  0  0  0  0  0  0  0
   -4.6187   -1.4006    5.9008 H   0  0  0  0  0  0  0  0  0  0  0  0
   -2.2271   -0.8662    3.1884 H   0  0  0  0  0  0  0  0  0  0  0  0
  1  2  1  0
  2  3  2  3
  3  4  1  0
  4  5  1  0
  4  6  2  3
  6  7  1  0
  7  8  2  3
  8  9  1  0
  9 10  1  0
 10 11  1  0
 11 12  1  0
 12 13  1  0
 13 14  1  0
 14 15  1  0
 15 16  1  0
 16 17  1  0
 17 18  1  0
 17 19  1  0
 19 20  1  0
 19 21  1  0
 21 22  1  0
 21 23  1  0
 23 24  1  0
 12 25  1  0
 25 26  1  0
 25 27  1  0
 27 28  1  0
 27 29  1  0
 29 30  1  0
  8 31  1  0
 31 32  2  3
 32 33  1  0
 33 34  2  3
 31 35  1  0
 35 36  1  0
 36 37  2  0
 37 38  1  0
 37 39  1  0
 39 40  1  0
 39 41  2  0
 41 42  1  0
 42 43  1  0
 41 44  1  0
 10  2  1  0
 34 29  1  0
 44 35  2  0
 15  6  1  0
 33 23  1  0
  1 45  1  0
  3 46  1  0
  5 47  1  0
  7 48  1  0
 10 49  1  1
 12 50  1  1
 13 51  1  0
 13 52  1  0
 15 53  1  6
 17 54  1  1
 18 55  1  0
 18 56  1  0
 18 57  1  0
 19 58  1  6
 20 59  1  0
 21 60  1  6
 22 61  1  0
 23 62  1  6
 24 63  1  0
 25 64  1  1
 26 65  1  0
 27 66  1  6
 28 67  1  0
 29 68  1  1
 30 69  1  0
 34 70  1  0
 36 71  1  0
 38 72  1  0
 40 73  1  0
 43 74  1  0
 43 75  1  0
 43 76  1  0
 44 77  1  0
M  CHG  1  32   1
M  END
>  <clase>  (6) 
Antocianina

>  <carga>  (6) 
1

>  <InChIKey>  (6) 
WYSAENFSIDPOSW-LMKGEBTQSA-O

>  <estado_ionico>  (6) 
catión flavilio (pH 2–4)

>  <parte_planta>  (6) 
fruto

$$$$
Peonidín-3-glucósido
     RDKit          3D

 56 59  0  0  0  0  0  0  0  0999 V2000
   -4.2771   -1.4261   -0.1271 O   0  0  0  0  0  0  0  0  0  0  0  0
   -2.9973   -1.9221    0.0150 C   0  0  0  0  0  0  0  0  0  0  0  0
   -2.7973   -3.1971    0.4359 C   0  0  0  0  0  0  0  0  0  0  0  0
   -1.4367   -3.7473    0.5339 C   0  0  0  0  0  0  0  0  0  0  0  0
   -1.1831   -4.7838   -0.3191 O   0  0  0  0  0  0  0  0  0  0  0  0
   -0.4666   -3.0229    1.1395 C   0  0  0  0  0  0  0  0  0  0  0  0
   -0.9163   -2.0442    2.1630 C   0  0  0  0  0  0  0  0  0  0  0  0
   -0.7175   -0.7632    1.7852 C   0  0  0  0  0  0  0  0  0  0  0  0
   -1.3315   -0.1634    0.6799 O   0  0  0  0  0  0  0  0  0  0  0  0
   -1.8352   -1.0077   -0.3763 C   0  0  2  0  0  0  0  0  0  0  0  0
   -2.0760   -0.2757   -1.5758 O   0  0  0  0  0  0  0  0  0  0  0  0
   -0.8550   -0.2784   -2.3965 C   0  0  2  0  0  0  0  0  0  0  0  0
   -0.9080    0.9657   -3.2876 C   0  0  0  0  0  0  0  0  0  0  0  0
   -0.8399    2.1197   -2.4434 O   0  0  0  0  0  0  0  0  0  0  0  0
   -0.7213   -1.6232   -3.1784 C   0  0  1  0  0  0  0  0  0  0  0  0
   -1.0817   -1.4029   -4.5502 O   0  0  0  0  0  0  0  0  0  0  0  0
    0.6995   -2.2752   -3.1316 C   0  0  2  0  0  0  0  0  0  0  0  0
    0.8319   -3.0377   -4.3615 O   0  0  0  0  0  0  0  0  0  0  0  0
    0.9360   -3.2941   -1.9564 C   0  0  1  0  0  0  0  0  0  0  0  0
    2.0165   -4.1554   -2.3422 O   0  0  0  0  0  0  0  0  0  0  0  0
    0.8096   -0.6731    1.8023 C   0  0  0  0  0  0  0  0  0  0  0  0
    1.5693   -1.6387    1.3146 O   0  0  0  0  0  0  0  0  0  0  0  0
    0.8817   -2.6899    0.5935 C   0  0  0  0  0  0  0  0  0  0  0  0
    1.3978   -2.7397   -0.6483 C   0  0  0  0  0  0  0  0  0  0  0  0
    1.4048    0.5433    2.4230 C   0  0  0  0  0  0  0  0  0  0  0  0
    2.8007    0.5469    2.5625 C   0  0  0  0  0  0  0  0  0  0  0  0
    3.4401    1.6426    3.1356 C   0  0  0  0  0  0  0  0  0  0  0  0
    2.6814    2.7255    3.5593 C   0  0  0  0  0  0  0  0  0  0  0  0
    3.3401    3.7842    4.1174 O   0  0  0  0  0  0  0  0  0  0  0  0
    1.2885    2.7477    3.4232 C   0  0  0  0  0  0  0  0  0  0  0  0
    0.6863    3.8873    3.8848 O   0  0  0  0  0  0  0  0  0  0  0  0
   -0.7219    4.0035    3.7160 C   0  0  0  0  0  0  0  0  0  0  0  0
    0.6456    1.6472    2.8521 C   0  0  0  0  0  0  0  0  0  0  0  0
   -4.2291   -0.6052   -0.6592 H   0  0  0  0  0  0  0  0  0  0  0  0
   -3.6416   -3.8385    0.6766 H   0  0  0  0  0  0  0  0  0  0  0  0
   -2.0262   -5.2204   -0.5605 H   0  0  0  0  0  0  0  0  0  0  0  0
   -0.5330   -2.3786    3.1363 H   0  0  0  0  0  0  0  0  0  0  0  0
   -1.0257   -1.6595   -0.6619 H   0  0  0  0  0  0  0  0  0  0  0  0
   -0.0031   -0.1497   -1.7140 H   0  0  0  0  0  0  0  0  0  0  0  0
   -1.8356    1.0253   -3.8662 H   0  0  0  0  0  0  0  0  0  0  0  0
   -0.0504    1.0027   -3.9656 H   0  0  0  0  0  0  0  0  0  0  0  0
   -1.7428    2.2571   -2.1023 H   0  0  0  0  0  0  0  0  0  0  0  0
   -1.4506   -2.3535   -2.8106 H   0  0  0  0  0  0  0  0  0  0  0  0
   -0.6810   -2.1421   -5.0578 H   0  0  0  0  0  0  0  0  0  0  0  0
    1.4788   -1.5044   -3.1593 H   0  0  0  0  0  0  0  0  0  0  0  0
    1.7784   -3.0113   -4.6094 H   0  0  0  0  0  0  0  0  0  0  0  0
    0.0652   -3.9344   -1.8853 H   0  0  0  0  0  0  0  0  0  0  0  0
    1.7149   -4.6296   -3.1436 H   0  0  0  0  0  0  0  0  0  0  0  0
    2.3671   -2.2445   -0.7369 H   0  0  0  0  0  0  0  0  0  0  0  0
    3.4010   -0.2999    2.2318 H   0  0  0  0  0  0  0  0  0  0  0  0
    4.5211    1.6592    3.2537 H   0  0  0  0  0  0  0  0  0  0  0  0
    2.6544    4.4428    4.3450 H   0  0  0  0  0  0  0  0  0  0  0  0
   -0.9957    3.9691    2.6563 H   0  0  0  0  0  0  0  0  0  0  0  0
   -1.0272    4.9777    4.1095 H   0  0  0  0  0  0  0  0  0  0  0  0
   -1.2497    3.2317    4.2855 H   0  0  0  0  0  0  0  0  0  0  0  0
   -0.4326    1.6550    2.7371 H   0  0  0  0  0  0  0  0  0  0  0  0
  1  2  1  0
  2  3  2  3
  3  4  1  0
  4  5  1  0
  4  6  2  3
  6  7  1  0
  7  8  2  0
  8  9  1  0
  9 10  1  0
 10 11  1  0
 11 12  1  0
 12 13  1  0
 13 14  1  0
 12 15  1  0
 15 16  1  0
 15 17  1  0
 17 18  1  0
 17 19  1  0
 19 20  1  0
  8 21  1  0
 21 22  2  0
 22 23  1  0
 23 24  2  3
 21 25  1  0
 25 26  1  0
 26 27  2  0
 27 28  1  0
 28 29  1  0
 28 30  2  0
 30 31  1  0
 31 32  1  0
 30 33  1  0
 10  2  1  0
 24 19  1  0
 33 25  2  0
 23  6  1  0
  1 34  1  0
  3 35  1  0
  5 36  1  0
  7 37  1  0
 10 38  1  6
 12 39  1  1
 13 40  1  0
 13 41  1  0
 14 42  1  0
 15 43  1  1
 16 44  1  0
 17 45  1  6
 18 46  1  0
 19 47  1  1
 20 48  1  0
 24 49  1  0
 26 50  1  0
 27 51  1  0
 29 52  1  0
 32 53  1  0
 32 54  1  0
 32 55  1  0
 33 56  1  0
M  CHG  1  22   1
M  END
>  <clase>  (7) 
Antocianina

>  <carga>  (7) 
1

>  <InChIKey>  (7) 
QSWQWTJQCHBLHI-ZWJZGKHJSA-O

>  <estado_ionico>  (7) 
catión flavilio (pH 2–4)

>  <parte_planta>  (7) 
fruto

$$$$
Peonidín-3-rutinosido
     RDKit          3D

 76 80  0  0  0  0  0  0  0  0999 V2000
    0.0488    3.2975    3.6325 O   0  0  0  0  0  0  0  0  0  0  0  0
    0.5521    2.9175    2.3974 C   0  0  0  0  0  0  0  0  0  0  0  0
    1.8727    2.7216    2.2171 C   0  0  0  0  0  0  0  0  0  0  0  0
    2.4409    2.3104    0.9517 C   0  0  0  0  0  0  0  0  0  0  0  0
    3.3951    3.1983    0.5239 O   0  0  0  0  0  0  0  0  0  0  0  0
    1.9995    1.2476    0.2441 C   0  0  0  0  0  0  0  0  0  0  0  0
    1.0841    0.2336    0.7972 C   0  0  0  0  0  0  0  0  0  0  0  0
   -0.2111    0.3204    1.1629 C   0  0  0  0  0  0  0  0  0  0  0  0
   -1.0281    1.4125    1.3069 O   0  0  0  0  0  0  0  0  0  0  0  0
   -0.5056    2.7527    1.3033 C   0  0  2  0  0  0  0  0  0  0  0  0
   -0.0459    3.2524    0.0339 O   0  0  0  0  0  0  0  0  0  0  0  0
   -0.5077    2.5468   -1.1251 C   0  0  2  0  0  0  0  0  0  0  0  0
    0.6395    2.5010   -2.1407 C   0  0  0  0  0  0  0  0  0  0  0  0
    1.2125    1.1716   -2.0673 O   0  0  0  0  0  0  0  0  0  0  0  0
    2.3571    0.9804   -1.2246 C   0  0  2  0  0  0  0  0  0  0  0  0
    2.7254   -0.4117   -1.2601 O   0  0  0  0  0  0  0  0  0  0  0  0
    2.7588   -1.0418   -2.5414 C   0  0  1  0  0  0  0  0  0  0  0  0
    4.2083   -1.1119   -3.0118 C   0  0  0  0  0  0  0  0  0  0  0  0
    2.1448   -2.4622   -2.3876 C   0  0  2  0  0  0  0  0  0  0  0  0
    1.9595   -3.1065   -3.6515 O   0  0  0  0  0  0  0  0  0  0  0  0
    0.8128   -2.5292   -1.5797 C   0  0  2  0  0  0  0  0  0  0  0  0
    0.3658   -3.9046   -1.5307 O   0  0  0  0  0  0  0  0  0  0  0  0
   -0.3291   -1.6763   -2.1768 C   0  0  1  0  0  0  0  0  0  0  0  0
   -1.0380   -2.4889   -3.1391 O   0  0  0  0  0  0  0  0  0  0  0  0
   -1.8820    3.0598   -1.5466 C   0  0  1  0  0  0  0  0  0  0  0  0
   -1.7840    4.4101   -2.0189 O   0  0  0  0  0  0  0  0  0  0  0  0
   -2.6684    2.2271   -2.5942 C   0  0  2  0  0  0  0  0  0  0  0  0
   -4.0681    2.4680   -2.3594 O   0  0  0  0  0  0  0  0  0  0  0  0
   -2.4668    0.6794   -2.6966 C   0  0  1  0  0  0  0  0  0  0  0  0
   -1.3853    0.4626   -3.5894 O   0  0  0  0  0  0  0  0  0  0  0  0
   -0.9154   -1.0173    1.1858 C   0  0  0  0  0  0  0  0  0  0  0  0
   -1.3944   -1.6443    0.1323 O   0  0  0  0  0  0  0  0  0  0  0  0
   -1.3148   -1.0559   -1.1715 C   0  0  0  0  0  0  0  0  0  0  0  0
   -2.2494   -0.1142   -1.4271 C   0  0  0  0  0  0  0  0  0  0  0  0
   -1.0448   -1.6558    2.5351 C   0  0  0  0  0  0  0  0  0  0  0  0
   -0.7385   -0.9962    3.7349 C   0  0  0  0  0  0  0  0  0  0  0  0
   -0.8800   -1.6695    4.9472 C   0  0  0  0  0  0  0  0  0  0  0  0
   -1.3242   -2.9862    4.9517 C   0  0  0  0  0  0  0  0  0  0  0  0
   -1.4475   -3.6122    6.1599 O   0  0  0  0  0  0  0  0  0  0  0  0
   -1.6397   -3.6609    3.7682 C   0  0  0  0  0  0  0  0  0  0  0  0
   -2.0638   -4.9515    3.9346 O   0  0  0  0  0  0  0  0  0  0  0  0
   -2.3944   -5.6847    2.7597 C   0  0  0  0  0  0  0  0  0  0  0  0
   -1.5003   -2.9877    2.5555 C   0  0  0  0  0  0  0  0  0  0  0  0
    0.7881    3.5454    4.2187 H   0  0  0  0  0  0  0  0  0  0  0  0
    2.5859    2.9018    3.0165 H   0  0  0  0  0  0  0  0  0  0  0  0
    4.0123    2.7760   -0.0944 H   0  0  0  0  0  0  0  0  0  0  0  0
    1.5539   -0.7514    0.7879 H   0  0  0  0  0  0  0  0  0  0  0  0
   -1.3521    3.3976    1.5669 H   0  0  0  0  0  0  0  0  0  0  0  0
   -0.6621    1.5208   -0.8587 H   0  0  0  0  0  0  0  0  0  0  0  0
    0.2569    2.6086   -3.1593 H   0  0  0  0  0  0  0  0  0  0  0  0
    1.4104    3.2597   -1.9706 H   0  0  0  0  0  0  0  0  0  0  0  0
    3.1938    1.5781   -1.5970 H   0  0  0  0  0  0  0  0  0  0  0  0
    2.2005   -0.4873   -3.3026 H   0  0  0  0  0  0  0  0  0  0  0  0
    4.6268   -0.1042   -3.1068 H   0  0  0  0  0  0  0  0  0  0  0  0
    4.8318   -1.6430   -2.2844 H   0  0  0  0  0  0  0  0  0  0  0  0
    4.2913   -1.6144   -3.9801 H   0  0  0  0  0  0  0  0  0  0  0  0
    2.8623   -3.0905   -1.8435 H   0  0  0  0  0  0  0  0  0  0  0  0
    1.3250   -2.5975   -4.1911 H   0  0  0  0  0  0  0  0  0  0  0  0
    1.0230   -2.2439   -0.5513 H   0  0  0  0  0  0  0  0  0  0  0  0
    0.9130   -4.4035   -2.1774 H   0  0  0  0  0  0  0  0  0  0  0  0
    0.1323   -0.8686   -2.7330 H   0  0  0  0  0  0  0  0  0  0  0  0
   -1.0578   -3.3917   -2.7520 H   0  0  0  0  0  0  0  0  0  0  0  0
   -2.5075    3.1291   -0.6470 H   0  0  0  0  0  0  0  0  0  0  0  0
   -1.3123    4.9251   -1.3344 H   0  0  0  0  0  0  0  0  0  0  0  0
   -2.4640    2.6518   -3.5864 H   0  0  0  0  0  0  0  0  0  0  0  0
   -4.2021    3.4321   -2.4654 H   0  0  0  0  0  0  0  0  0  0  0  0
   -3.3619    0.2505   -3.1668 H   0  0  0  0  0  0  0  0  0  0  0  0
   -1.7324    0.5785   -4.4972 H   0  0  0  0  0  0  0  0  0  0  0  0
   -2.9645    0.1062   -0.6382 H   0  0  0  0  0  0  0  0  0  0  0  0
   -0.4005    0.0369    3.7672 H   0  0  0  0  0  0  0  0  0  0  0  0
   -0.6508   -1.1753    5.8888 H   0  0  0  0  0  0  0  0  0  0  0  0
   -1.7746   -4.5128    5.9646 H   0  0  0  0  0  0  0  0  0  0  0  0
   -3.2312   -5.2194    2.2286 H   0  0  0  0  0  0  0  0  0  0  0  0
   -1.5226   -5.7939    2.1062 H   0  0  0  0  0  0  0  0  0  0  0  0
   -2.7090   -6.6862    3.0680 H   0  0  0  0  0  0  0  0  0  0  0  0
   -1.7355   -3.4782    1.6141 H   0  0  0  0  0  0  0  0  0  0  0  0
  1  2  1  0
  2  3  2  3
  3  4  1  0
  4  5  1  0
  4  6  2  3
  6  7  1  0
  7  8  2  3
  8  9  1  0
  9 10  1  0
 10 11  1  0
 11 12  1  0
 12 13  1  0
 13 14  1  0
 14 15  1  0
 15 16  1  0
 16 17  1  0
 17 18  1  0
 17 19  1  0
 19 20  1  0
 19 21  1  0
 21 22  1  0
 21 23  1  0
 23 24  1  0
 12 25  1  0
 25 26  1  0
 25 27  1  0
 27 28  1  0
 27 29  1  0
 29 30  1  0
  8 31  1  0
 31 32  2  3
 32 33  1  0
 33 34  2  3
 31 35  1  0
 35 36  1  0
 36 37  2  0
 37 38  1  0
 38 39  1  0
 38 40  2  0
 40 41  1  0
 41 42  1  0
 40 43  1  0
 10  2  1  0
 34 29  1  0
 43 35  2  0
 15  6  1  0
 33 23  1  0
  1 44  1  0
  3 45  1  0
  5 46  1  0
  7 47  1  0
 10 48  1  1
 12 49  1  1
 13 50  1  0
 13 51  1  0
 15 52  1  6
 17 53  1  6
 18 54  1  0
 18 55  1  0
 18 56  1  0
 19 57  1  1
 20 58  1  0
 21 59  1  1
 22 60  1  0
 23 61  1  6
 24 62  1  0
 25 63  1  1
 26 64  1  0
 27 65  1  6
 28 66  1  0
 29 67  1  6
 30 68  1  0
 34 69  1  0
 36 70  1  0
 37 71  1  0
 39 72  1  0
 42 73  1  0
 42 74  1  0
 42 75  1  0
 43 76  1  0
M  CHG  1  32   1
M  END
>  <clase>  (8) 
Antocianina

>  <carga>  (8) 
1

>  <InChIKey>  (8) 
LWSMCVGWROVMRP-DHAVVHIUSA-O

>  <estado_ionico>  (8) 
catión flavilio (pH 2–4)

>  <parte_planta>  (8) 
fruto

$$$$
Malvidín-3-glucósido
     RDKit          3D

 60 63  0  0  0  0  0  0  0  0999 V2000
    2.0364    3.2453   -1.7194 O   0  0  0  0  0  0  0  0  0  0  0  0
    1.2151    2.1449   -1.6725 C   0  0  0  0  0  0  0  0  0  0  0  0
   -0.0909    2.1451   -2.0521 C   0  0  0  0  0  0  0  0  0  0  0  0
   -1.0504    0.9989   -2.0021 C   0  0  0  0  0  0  0  0  0  0  0  0
   -2.3272    1.3395   -2.4286 O   0  0  0  0  0  0  0  0  0  0  0  0
   -0.8819   -0.2819   -1.5637 C   0  0  0  0  0  0  0  0  0  0  0  0
    0.2277   -1.0483   -0.8990 C   0  0  0  0  0  0  0  0  0  0  0  0
    0.4742   -0.5301    0.2799 C   0  0  0  0  0  0  0  0  0  0  0  0
    1.3151    0.6009    0.2278 O   0  0  0  0  0  0  0  0  0  0  0  0
    1.8228    0.8633   -1.1659 C   0  0  2  0  0  0  0  0  0  0  0  0
    2.9672    0.2146   -1.7571 O   0  0  0  0  0  0  0  0  0  0  0  0
    2.6923   -1.1456   -2.3923 C   0  0  2  0  0  0  0  0  0  0  0  0
    4.0415   -1.5941   -2.9706 C   0  0  0  0  0  0  0  0  0  0  0  0
    4.9900   -1.6791   -1.9053 O   0  0  0  0  0  0  0  0  0  0  0  0
    1.4833   -1.3007   -3.5009 C   0  0  1  0  0  0  0  0  0  0  0  0
    2.0370   -1.2820   -4.8264 O   0  0  0  0  0  0  0  0  0  0  0  0
    0.5247   -2.6053   -3.3541 C   0  0  2  0  0  0  0  0  0  0  0  0
    0.8526   -3.4648   -4.4724 O   0  0  0  0  0  0  0  0  0  0  0  0
   -1.1174   -2.4045   -3.3453 C   0  0  1  0  0  0  0  0  0  0  0  0
   -1.6673   -3.5902   -3.9423 O   0  0  0  0  0  0  0  0  0  0  0  0
   -0.9816   -0.7208    0.9225 C   0  0  0  0  0  0  0  0  0  0  0  0
   -2.0551   -1.2152    0.2169 O   0  0  0  0  0  0  0  0  0  0  0  0
   -1.9514   -1.1507   -1.2543 C   0  0  0  0  0  0  0  0  0  0  0  0
   -1.9671   -2.2673   -2.0214 C   0  0  0  0  0  0  0  0  0  0  0  0
   -1.1024   -0.4461    2.3838 C   0  0  0  0  0  0  0  0  0  0  0  0
   -0.0429    0.0264    3.1742 C   0  0  0  0  0  0  0  0  0  0  0  0
   -0.2414    0.2644    4.5358 C   0  0  0  0  0  0  0  0  0  0  0  0
    0.7125    0.7251    5.4004 O   0  0  0  0  0  0  0  0  0  0  0  0
    2.0047    1.0236    4.8919 C   0  0  0  0  0  0  0  0  0  0  0  0
   -1.5062    0.0185    5.0861 C   0  0  0  0  0  0  0  0  0  0  0  0
   -1.7121    0.2479    6.4236 O   0  0  0  0  0  0  0  0  0  0  0  0
   -2.5715   -0.4561    4.3099 C   0  0  0  0  0  0  0  0  0  0  0  0
   -3.7437   -0.6473    4.9917 O   0  0  0  0  0  0  0  0  0  0  0  0
   -4.8544   -1.1542    4.2601 C   0  0  0  0  0  0  0  0  0  0  0  0
   -2.3649   -0.6866    2.9529 C   0  0  0  0  0  0  0  0  0  0  0  0
    1.5798    4.0048   -2.1214 H   0  0  0  0  0  0  0  0  0  0  0  0
   -0.4964    3.0883   -2.4151 H   0  0  0  0  0  0  0  0  0  0  0  0
   -2.3584    2.2557   -2.7669 H   0  0  0  0  0  0  0  0  0  0  0  0
    0.1077   -2.1384   -0.8202 H   0  0  0  0  0  0  0  0  0  0  0  0
    1.2107    0.3583   -1.8507 H   0  0  0  0  0  0  0  0  0  0  0  0
    2.4825   -1.7977   -1.5385 H   0  0  0  0  0  0  0  0  0  0  0  0
    3.9675   -2.5836   -3.4306 H   0  0  0  0  0  0  0  0  0  0  0  0
    4.4266   -0.8783   -3.7037 H   0  0  0  0  0  0  0  0  0  0  0  0
    5.0960   -0.7666   -1.5732 H   0  0  0  0  0  0  0  0  0  0  0  0
    0.8473   -0.4212   -3.5116 H   0  0  0  0  0  0  0  0  0  0  0  0
    1.9238   -2.1900   -5.1870 H   0  0  0  0  0  0  0  0  0  0  0  0
    0.8094   -3.1777   -2.4666 H   0  0  0  0  0  0  0  0  0  0  0  0
    0.4148   -4.3252   -4.3057 H   0  0  0  0  0  0  0  0  0  0  0  0
   -1.3702   -1.5784   -4.0216 H   0  0  0  0  0  0  0  0  0  0  0  0
   -1.4681   -3.5446   -4.8997 H   0  0  0  0  0  0  0  0  0  0  0  0
   -2.4754   -3.1530   -1.6524 H   0  0  0  0  0  0  0  0  0  0  0  0
    0.9335    0.2122    2.7420 H   0  0  0  0  0  0  0  0  0  0  0  0
    2.6158    1.3910    5.7218 H   0  0  0  0  0  0  0  0  0  0  0  0
    1.9575    1.8139    4.1356 H   0  0  0  0  0  0  0  0  0  0  0  0
    2.4871    0.1251    4.4936 H   0  0  0  0  0  0  0  0  0  0  0  0
   -2.6422    0.0144    6.6049 H   0  0  0  0  0  0  0  0  0  0  0  0
   -4.6358   -2.1456    3.8501 H   0  0  0  0  0  0  0  0  0  0  0  0
   -5.1551   -0.4576    3.4707 H   0  0  0  0  0  0  0  0  0  0  0  0
   -5.6940   -1.2563    4.9542 H   0  0  0  0  0  0  0  0  0  0  0  0
   -3.1699   -1.0537    2.3212 H   0  0  0  0  0  0  0  0  0  0  0  0
  1  2  1  0
  2  3  2  3
  3  4  1  0
  4  5  1  0
  4  6  2  3
  6  7  1  0
  7  8  2  0
  8  9  1  0
  9 10  1  0
 10 11  1  0
 11 12  1  0
 12 13  1  0
 13 14  1  0
 12 15  1  0
 15 16  1  0
 15 17  1  0
 17 18  1  0
 17 19  1  0
 19 20  1  0
  8 21  1  0
 21 22  2  0
 22 23  1  0
 23 24  2  3
 21 25  1  0
 25 26  1  0
 26 27  2  0
 27 28  1  0
 28 29  1  0
 27 30  1  0
 30 31  1  0
 30 32  2  0
 32 33  1  0
 33 34  1  0
 32 35  1  0
 10  2  1  0
 24 19  1  0
 35 25  2  0
 23  6  1  0
  1 36  1  0
  3 37  1  0
  5 38  1  0
  7 39  1  0
 10 40  1  6
 12 41  1  1
 13 42  1  0
 13 43  1  0
 14 44  1  0
 15 45  1  6
 16 46  1  0
 17 47  1  1
 18 48  1  0
 19 49  1  6
 20 50  1  0
 24 51  1  0
 26 52  1  0
 29 53  1  0
 29 54  1  0
 29 55  1  0
 31 56  1  0
 34 57  1  0
 34 58  1  0
 34 59  1  0
 35 60  1  0
M  CHG  1  22   1
M  END
>  <clase>  (9) 
Antocianina

>  <carga>  (9) 
1

>  <InChIKey>  (9) 
KIRYGULMPJVJMU-VXHXMGGCSA-O

>  <estado_ionico>  (9) 
catión flavilio (pH 2–4)

>  <parte_planta>  (9) 
fruto

$$$$
Malvidín-3-rutinosido
     RDKit          3D

 80 84  0  0  0  0  0  0  0  0999 V2000
    2.0224   -2.2431   -3.9375 O   0  0  0  0  0  0  0  0  0  0  0  0
    1.0322   -2.4088   -2.9749 C   0  0  0  0  0  0  0  0  0  0  0  0
    1.1820   -3.3941   -2.0730 C   0  0  0  0  0  0  0  0  0  0  0  0
    0.2051   -3.5897   -1.0363 C   0  0  0  0  0  0  0  0  0  0  0  0
   -0.4744   -4.7732   -1.1965 O   0  0  0  0  0  0  0  0  0  0  0  0
   -0.1433   -2.6232   -0.1586 C   0  0  0  0  0  0  0  0  0  0  0  0
    0.5908   -1.3647    0.0011 C   0  0  0  0  0  0  0  0  0  0  0  0
    0.6498   -0.3428   -0.8773 C   0  0  0  0  0  0  0  0  0  0  0  0
    0.2173   -0.2694   -2.1739 O   0  0  0  0  0  0  0  0  0  0  0  0
   -0.1354   -1.4024   -2.9682 C   0  0  2  0  0  0  0  0  0  0  0  0
   -1.4174   -1.9982   -2.7299 O   0  0  0  0  0  0  0  0  0  0  0  0
   -2.3941   -1.2965   -1.9442 C   0  0  2  0  0  0  0  0  0  0  0  0
   -3.1737   -2.3828   -1.1302 C   0  0  0  0  0  0  0  0  0  0  0  0
   -2.4593   -3.2364   -0.2154 O   0  0  0  0  0  0  0  0  0  0  0  0
   -1.4550   -2.6567    0.6193 C   0  0  2  0  0  0  0  0  0  0  0  0
   -1.7510   -1.3262    1.0255 O   0  0  0  0  0  0  0  0  0  0  0  0
   -2.7743   -1.1449    1.9997 C   0  0  1  0  0  0  0  0  0  0  0  0
   -2.2695   -1.4664    3.4007 C   0  0  0  0  0  0  0  0  0  0  0  0
   -3.1913    0.3381    1.8376 C   0  0  2  0  0  0  0  0  0  0  0  0
   -3.7481    0.5007    0.5255 O   0  0  0  0  0  0  0  0  0  0  0  0
   -2.0089    1.3226    2.0293 C   0  0  2  0  0  0  0  0  0  0  0  0
   -2.1977    1.9383    3.3241 O   0  0  0  0  0  0  0  0  0  0  0  0
   -1.8564    2.4250    0.9513 C   0  0  1  0  0  0  0  0  0  0  0  0
   -1.1382    3.5100    1.6338 O   0  0  0  0  0  0  0  0  0  0  0  0
   -3.3948   -0.4697   -2.8158 C   0  0  1  0  0  0  0  0  0  0  0  0
   -4.6195   -0.2437   -2.0975 O   0  0  0  0  0  0  0  0  0  0  0  0
   -2.9225    0.9164   -3.3419 C   0  0  2  0  0  0  0  0  0  0  0  0
   -1.8043    0.7933   -4.2207 O   0  0  0  0  0  0  0  0  0  0  0  0
   -2.6684    2.0663   -2.3012 C   0  0  1  0  0  0  0  0  0  0  0  0
   -3.7364    2.2745   -1.4069 O   0  0  0  0  0  0  0  0  0  0  0  0
    1.1373    0.9688   -0.3104 C   0  0  0  0  0  0  0  0  0  0  0  0
    0.3950    2.0209   -0.0521 O   0  0  0  0  0  0  0  0  0  0  0  0
   -1.0275    2.0054   -0.2735 C   0  0  0  0  0  0  0  0  0  0  0  0
   -1.3680    1.9851   -1.5713 C   0  0  0  0  0  0  0  0  0  0  0  0
    2.6143    1.0471   -0.0548 C   0  0  0  0  0  0  0  0  0  0  0  0
    3.5401    0.1635   -0.6363 C   0  0  0  0  0  0  0  0  0  0  0  0
    4.8965    0.3032   -0.3527 C   0  0  0  0  0  0  0  0  0  0  0  0
    5.9044   -0.4858   -0.8422 O   0  0  0  0  0  0  0  0  0  0  0  0
    5.5411   -1.5557   -1.7098 C   0  0  0  0  0  0  0  0  0  0  0  0
    5.3121    1.3334    0.5034 C   0  0  0  0  0  0  0  0  0  0  0  0
    6.6506    1.4637    0.7794 O   0  0  0  0  0  0  0  0  0  0  0  0
    4.4031    2.2311    1.0788 C   0  0  0  0  0  0  0  0  0  0  0  0
    4.9334    3.1944    1.8907 O   0  0  0  0  0  0  0  0  0  0  0  0
    4.0475    4.1221    2.5005 C   0  0  0  0  0  0  0  0  0  0  0  0
    3.0476    2.0833    0.7888 C   0  0  0  0  0  0  0  0  0  0  0  0
    1.6257   -1.8733   -4.7470 H   0  0  0  0  0  0  0  0  0  0  0  0
    2.0035   -4.1003   -2.1371 H   0  0  0  0  0  0  0  0  0  0  0  0
   -1.3683   -4.6744   -0.8135 H   0  0  0  0  0  0  0  0  0  0  0  0
    0.9471   -1.2246    1.0247 H   0  0  0  0  0  0  0  0  0  0  0  0
   -0.2034   -1.0290   -3.9944 H   0  0  0  0  0  0  0  0  0  0  0  0
   -1.9299   -0.6285   -1.2293 H   0  0  0  0  0  0  0  0  0  0  0  0
   -3.9832   -1.9312   -0.5522 H   0  0  0  0  0  0  0  0  0  0  0  0
   -3.6499   -3.0679   -1.8419 H   0  0  0  0  0  0  0  0  0  0  0  0
   -1.3151   -3.2998    1.4949 H   0  0  0  0  0  0  0  0  0  0  0  0
   -3.6304   -1.7847    1.7568 H   0  0  0  0  0  0  0  0  0  0  0  0
   -2.0893   -2.5409    3.5075 H   0  0  0  0  0  0  0  0  0  0  0  0
   -1.3163   -0.9724    3.6134 H   0  0  0  0  0  0  0  0  0  0  0  0
   -3.0004   -1.1722    4.1600 H   0  0  0  0  0  0  0  0  0  0  0  0
   -3.9902    0.5652    2.5544 H   0  0  0  0  0  0  0  0  0  0  0  0
   -4.6033    0.0227    0.5282 H   0  0  0  0  0  0  0  0  0  0  0  0
   -1.0538    0.7939    2.1201 H   0  0  0  0  0  0  0  0  0  0  0  0
   -1.6915    2.7795    3.2976 H   0  0  0  0  0  0  0  0  0  0  0  0
   -2.8240    2.8599    0.6952 H   0  0  0  0  0  0  0  0  0  0  0  0
   -1.0318    4.2402    0.9955 H   0  0  0  0  0  0  0  0  0  0  0  0
   -3.6331   -1.0905   -3.6900 H   0  0  0  0  0  0  0  0  0  0  0  0
   -5.3427   -0.1971   -2.7554 H   0  0  0  0  0  0  0  0  0  0  0  0
   -3.7568    1.2917   -3.9532 H   0  0  0  0  0  0  0  0  0  0  0  0
   -2.1423    0.4806   -5.0827 H   0  0  0  0  0  0  0  0  0  0  0  0
   -2.5944    2.9894   -2.8922 H   0  0  0  0  0  0  0  0  0  0  0  0
   -4.1219    1.4027   -1.1655 H   0  0  0  0  0  0  0  0  0  0  0  0
   -0.5371    1.9554   -2.2737 H   0  0  0  0  0  0  0  0  0  0  0  0
    3.2097   -0.6162   -1.3147 H   0  0  0  0  0  0  0  0  0  0  0  0
    5.0749   -1.1774   -2.6254 H   0  0  0  0  0  0  0  0  0  0  0  0
    6.4575   -2.0819   -1.9934 H   0  0  0  0  0  0  0  0  0  0  0  0
    4.8879   -2.2714   -1.1996 H   0  0  0  0  0  0  0  0  0  0  0  0
    7.1045    0.7566    0.2830 H   0  0  0  0  0  0  0  0  0  0  0  0
    3.3408    3.6137    3.1646 H   0  0  0  0  0  0  0  0  0  0  0  0
    3.5218    4.7179    1.7472 H   0  0  0  0  0  0  0  0  0  0  0  0
    4.6452    4.8066    3.1100 H   0  0  0  0  0  0  0  0  0  0  0  0
    2.3102    2.7621    1.2098 H   0  0  0  0  0  0  0  0  0  0  0  0
  1  2  1  0
  2  3  2  3
  3  4  1  0
  4  5  1  0
  4  6  2  3
  6  7  1  0
  7  8  2  3
  8  9  1  0
  9 10  1  0
 10 11  1  0
 11 12  1  0
 12 13  1  0
 13 14  1  0
 14 15  1  0
 15 16  1  0
 16 17  1  0
 17 18  1  0
 17 19  1  0
 19 20  1  0
 19 21  1  0
 21 22  1  0
 21 23  1  0
 23 24  1  0
 12 25  1  0
 25 26  1  0
 25 27  1  0
 27 28  1  0
 27 29  1  0
 29 30  1  0
  8 31  1  0
 31 32  2  3
 32 33  1  0
 33 34  2  3
 31 35  1  0
 35 36  1  0
 36 37  2  0
 37 38  1  0
 38 39  1  0
 37 40  1  0
 40 41  1  0
 40 42  2  0
 42 43  1  0
 43 44  1  0
 42 45  1  0
 10  2  1  0
 34 29  1  0
 45 35  2  0
 15  6  1  0
 33 23  1  0
  1 46  1  0
  3 47  1  0
  5 48  1  0
  7 49  1  0
 10 50  1  6
 12 51  1  1
 13 52  1  0
 13 53  1  0
 15 54  1  1
 17 55  1  6
 18 56  1  0
 18 57  1  0
 18 58  1  0
 19 59  1  1
 20 60  1  0
 21 61  1  1
 22 62  1  0
 23 63  1  6
 24 64  1  0
 25 65  1  6
 26 66  1  0
 27 67  1  6
 28 68  1  0
 29 69  1  6
 30 70  1  0
 34 71  1  0
 36 72  1  0
 39 73  1  0
 39 74  1  0
 39 75  1  0
 41 76  1  0
 44 77  1  0
 44 78  1  0
 44 79  1  0
 45 80  1  0
M  CHG  1  32   1
M  END
>  <clase>  (10) 
Antocianina

>  <carga>  (10) 
1

>  <InChIKey>  (10) 
NTQACCPYZUZLIJ-UYWOMXLRSA-O

>  <estado_ionico>  (10) 
catión flavilio (pH 2–4)

>  <parte_planta>  (10) 
fruto

$$$$
Quercetín-3-rutinosido (Rutina)
     RDKit          3D

 73 77  0  0  0  0  0  0  0  0999 V2000
    0.3249    1.5299    1.3947 O   0  0  0  0  0  0  0  0  0  0  0  0
    0.4697    0.3705    1.7153 C   0  0  0  0  0  0  0  0  0  0  0  0
    1.1802   -0.8127    1.2063 C   0  0  0  0  0  0  0  0  0  0  0  0
    0.9952   -1.4626    2.3090 O   0  0  0  0  0  0  0  0  0  0  0  0
   -0.1052   -0.6173    2.7244 C   0  0  2  0  0  0  0  0  0  0  0  0
   -1.4096   -1.2045    2.4697 O   0  0  0  0  0  0  0  0  0  0  0  0
   -1.7163   -1.6581    1.1278 C   0  0  2  0  0  0  0  0  0  0  0  0
   -3.1280   -1.1559    0.7908 C   0  0  0  0  0  0  0  0  0  0  0  0
   -3.0316    0.2771    0.7168 O   0  0  0  0  0  0  0  0  0  0  0  0
   -3.9549    0.8669   -0.1966 C   0  0  2  0  0  0  0  0  0  0  0  0
   -3.7063    0.4341   -1.5401 O   0  0  0  0  0  0  0  0  0  0  0  0
   -2.6319    1.1481   -2.1546 C   0  0  1  0  0  0  0  0  0  0  0  0
   -2.2731    0.4393   -3.4546 C   0  0  0  0  0  0  0  0  0  0  0  0
   -3.0325    2.6122   -2.4088 C   0  0  2  0  0  0  0  0  0  0  0  0
   -1.8606    3.4495   -2.3396 O   0  0  0  0  0  0  0  0  0  0  0  0
   -4.0756    3.0834   -1.3821 C   0  0  2  0  0  0  0  0  0  0  0  0
   -3.9858    4.5120   -1.2487 O   0  0  0  0  0  0  0  0  0  0  0  0
   -3.8369    2.4044   -0.0359 C   0  0  1  0  0  0  0  0  0  0  0  0
   -4.7800    2.9123    0.9238 O   0  0  0  0  0  0  0  0  0  0  0  0
   -1.5028   -3.1870    1.0220 C   0  0  1  0  0  0  0  0  0  0  0  0
   -2.7684   -3.8276    0.7611 O   0  0  0  0  0  0  0  0  0  0  0  0
   -0.5007   -3.6074   -0.1028 C   0  0  2  0  0  0  0  0  0  0  0  0
   -0.8895   -4.9556   -0.5068 O   0  0  0  0  0  0  0  0  0  0  0  0
    1.0203   -3.6371    0.3072 C   0  0  1  0  0  0  0  0  0  0  0  0
    1.5110   -4.9605   -0.0261 O   0  0  0  0  0  0  0  0  0  0  0  0
    1.6354   -1.1643   -0.0091 C   0  0  0  0  0  0  0  0  0  0  0  0
    1.9368   -2.5683   -0.3388 C   0  0  0  0  0  0  0  0  0  0  0  0
    2.9456   -2.9188   -1.1736 C   0  0  0  0  0  0  0  0  0  0  0  0
    3.8773   -2.0986   -1.9324 C   0  0  0  0  0  0  0  0  0  0  0  0
    4.6950   -1.1239   -1.4993 C   0  0  0  0  0  0  0  0  0  0  0  0
    5.5784   -0.4857   -2.3453 O   0  0  0  0  0  0  0  0  0  0  0  0
    4.7869   -0.6380   -0.1402 C   0  0  0  0  0  0  0  0  0  0  0  0
    5.6183   -1.3607    0.6940 O   0  0  0  0  0  0  0  0  0  0  0  0
    4.1683    0.4528    0.3329 C   0  0  0  0  0  0  0  0  0  0  0  0
    1.6141   -0.3368   -1.1229 O   0  0  0  0  0  0  0  0  0  0  0  0
    2.0857    0.9572   -1.0440 C   0  0  0  0  0  0  0  0  0  0  0  0
    1.2798    1.8864   -1.7162 C   0  0  0  0  0  0  0  0  0  0  0  0
    1.6168    3.2317   -1.7165 C   0  0  0  0  0  0  0  0  0  0  0  0
    0.8059    4.1551   -2.3083 O   0  0  0  0  0  0  0  0  0  0  0  0
    2.7871    3.6621   -1.1126 C   0  0  0  0  0  0  0  0  0  0  0  0
    3.6158    2.7314   -0.4836 C   0  0  0  0  0  0  0  0  0  0  0  0
    4.7764    3.2324    0.0518 O   0  0  0  0  0  0  0  0  0  0  0  0
    3.2825    1.3629   -0.4191 C   0  0  0  0  0  0  0  0  0  0  0  0
   -0.0042   -0.3040    3.7679 H   0  0  0  0  0  0  0  0  0  0  0  0
   -1.0729   -1.1522    0.4083 H   0  0  0  0  0  0  0  0  0  0  0  0
   -3.4623   -1.5726   -0.1648 H   0  0  0  0  0  0  0  0  0  0  0  0
   -3.8464   -1.4038    1.5786 H   0  0  0  0  0  0  0  0  0  0  0  0
   -4.9652    0.5399    0.0773 H   0  0  0  0  0  0  0  0  0  0  0  0
   -1.7546    1.0960   -1.4982 H   0  0  0  0  0  0  0  0  0  0  0  0
   -1.4560    0.9480   -3.9751 H   0  0  0  0  0  0  0  0  0  0  0  0
   -1.9693   -0.5934   -3.2514 H   0  0  0  0  0  0  0  0  0  0  0  0
   -3.1391    0.3853   -4.1237 H   0  0  0  0  0  0  0  0  0  0  0  0
   -3.4480    2.7501   -3.4138 H   0  0  0  0  0  0  0  0  0  0  0  0
   -2.2291    4.3333   -2.1016 H   0  0  0  0  0  0  0  0  0  0  0  0
   -5.0886    2.8537   -1.7343 H   0  0  0  0  0  0  0  0  0  0  0  0
   -4.5063    4.7217   -0.4452 H   0  0  0  0  0  0  0  0  0  0  0  0
   -2.8470    2.6858    0.3464 H   0  0  0  0  0  0  0  0  0  0  0  0
   -4.5360    2.5056    1.7778 H   0  0  0  0  0  0  0  0  0  0  0  0
   -1.1556   -3.5980    1.9767 H   0  0  0  0  0  0  0  0  0  0  0  0
   -2.5689   -4.5939    0.1816 H   0  0  0  0  0  0  0  0  0  0  0  0
   -0.6567   -2.9854   -0.9912 H   0  0  0  0  0  0  0  0  0  0  0  0
   -0.4721   -5.5597    0.1445 H   0  0  0  0  0  0  0  0  0  0  0  0
    1.1175   -3.6014    1.3945 H   0  0  0  0  0  0  0  0  0  0  0  0
    1.1852   -5.1438   -0.9297 H   0  0  0  0  0  0  0  0  0  0  0  0
    3.1054   -3.9756   -1.3871 H   0  0  0  0  0  0  0  0  0  0  0  0
    3.9365   -2.3947   -2.9786 H   0  0  0  0  0  0  0  0  0  0  0  0
    5.3612   -0.7230   -3.2618 H   0  0  0  0  0  0  0  0  0  0  0  0
    6.0536   -2.0369    0.1455 H   0  0  0  0  0  0  0  0  0  0  0  0
    4.3336    0.7350    1.3707 H   0  0  0  0  0  0  0  0  0  0  0  0
    0.3823    1.5503   -2.2201 H   0  0  0  0  0  0  0  0  0  0  0  0
   -0.0887    3.7632   -2.4142 H   0  0  0  0  0  0  0  0  0  0  0  0
    3.0572    4.7132   -1.1302 H   0  0  0  0  0  0  0  0  0  0  0  0
    5.4004    2.4947    0.1652 H   0  0  0  0  0  0  0  0  0  0  0  0
  1  2  2  0
  2  3  1  0
  3  4  1  0
  4  5  1  0
  5  6  1  0
  6  7  1  0
  7  8  1  0
  8  9  1  0
  9 10  1  0
 10 11  1  0
 11 12  1  0
 12 13  1  0
 12 14  1  0
 14 15  1  0
 14 16  1  0
 16 17  1  0
 16 18  1  0
 18 19  1  0
  7 20  1  0
 20 21  1  0
 20 22  1  0
 22 23  1  0
 22 24  1  0
 24 25  1  0
  3 26  2  3
 26 27  1  0
 27 28  2  3
 28 29  1  0
 29 30  2  3
 30 31  1  0
 30 32  1  0
 32 33  1  0
 32 34  2  3
 26 35  1  0
 35 36  1  0
 36 37  2  0
 37 38  1  0
 38 39  1  0
 38 40  2  0
 40 41  1  0
 41 42  1  0
 41 43  2  0
  5  2  1  0
 27 24  1  0
 43 34  1  0
 18 10  1  0
 43 36  1  0
  5 44  1  1
  7 45  1  6
  8 46  1  0
  8 47  1  0
 10 48  1  1
 12 49  1  1
 13 50  1  0
 13 51  1  0
 13 52  1  0
 14 53  1  6
 15 54  1  0
 16 55  1  6
 17 56  1  0
 18 57  1  1
 19 58  1  0
 20 59  1  1
 21 60  1  0
 22 61  1  6
 23 62  1  0
 24 63  1  1
 25 64  1  0
 28 65  1  0
 29 66  1  0
 31 67  1  0
 33 68  1  0
 34 69  1  0
 37 70  1  0
 39 71  1  0
 40 72  1  0
 42 73  1  0
M  END
>  <clase>  (11) 
Flavonol

>  <carga>  (11) 
0

>  <InChIKey>  (11) 
YHBWWTJAPGJLSN-WUDITWQYSA-N

>  <estado_ionico>  (11) 
neutro

>  <parte_planta>  (11) 
fruto|hojas

$$$$
Quercetín-3-galactosido
     RDKit          3D

 53 56  0  0  0  0  0  0  0  0999 V2000
   -2.0645    1.7891   -2.2957 O   0  0  0  0  0  0  0  0  0  0  0  0
   -1.8842    0.6231   -2.0149 C   0  0  0  0  0  0  0  0  0  0  0  0
   -1.4237   -0.1421   -0.8522 C   0  0  0  0  0  0  0  0  0  0  0  0
   -1.7398   -1.2705   -1.3961 O   0  0  0  0  0  0  0  0  0  0  0  0
   -1.8198   -0.7219   -2.7278 C   0  0  2  0  0  0  0  0  0  0  0  0
   -0.6661   -1.0034   -3.5610 O   0  0  0  0  0  0  0  0  0  0  0  0
    0.6572   -0.7395   -3.0485 C   0  0  2  0  0  0  0  0  0  0  0  0
    1.5001   -0.4061   -4.2977 C   0  0  0  0  0  0  0  0  0  0  0  0
    1.5941   -1.5278   -5.1711 O   0  0  0  0  0  0  0  0  0  0  0  0
    1.2871   -1.9400   -2.2727 C   0  0  2  0  0  0  0  0  0  0  0  0
    0.5340   -3.1426   -2.4393 O   0  0  0  0  0  0  0  0  0  0  0  0
    1.6143   -1.6650   -0.7691 C   0  0  2  0  0  0  0  0  0  0  0  0
    2.7837   -2.4790   -0.4446 O   0  0  0  0  0  0  0  0  0  0  0  0
    0.5067   -2.0433    0.2841 C   0  0  1  0  0  0  0  0  0  0  0  0
    1.0686   -2.9989    1.2158 O   0  0  0  0  0  0  0  0  0  0  0  0
   -0.7615    0.1872    0.2686 C   0  0  0  0  0  0  0  0  0  0  0  0
   -0.0647   -0.8379    1.0707 C   0  0  0  0  0  0  0  0  0  0  0  0
    0.1072   -0.7446    2.4111 C   0  0  0  0  0  0  0  0  0  0  0  0
   -0.3204    0.2841    3.3400 C   0  0  0  0  0  0  0  0  0  0  0  0
   -1.5561    0.7692    3.5246 C   0  0  0  0  0  0  0  0  0  0  0  0
   -1.7769    1.7176    4.5054 O   0  0  0  0  0  0  0  0  0  0  0  0
   -2.7384    0.3749    2.7866 C   0  0  0  0  0  0  0  0  0  0  0  0
   -3.3614   -0.7697    3.2432 O   0  0  0  0  0  0  0  0  0  0  0  0
   -3.2632    1.0487    1.7542 C   0  0  0  0  0  0  0  0  0  0  0  0
   -0.4503    1.4920    0.6292 O   0  0  0  0  0  0  0  0  0  0  0  0
   -1.4362    2.4609    0.6588 C   0  0  0  0  0  0  0  0  0  0  0  0
   -1.0119    3.7081    0.1751 C   0  0  0  0  0  0  0  0  0  0  0  0
   -1.8951    4.7803    0.1523 C   0  0  0  0  0  0  0  0  0  0  0  0
   -1.5206    6.0022   -0.3241 O   0  0  0  0  0  0  0  0  0  0  0  0
   -3.1943    4.6412    0.6170 C   0  0  0  0  0  0  0  0  0  0  0  0
   -3.6085    3.4088    1.1225 C   0  0  0  0  0  0  0  0  0  0  0  0
   -4.8896    3.2816    1.6000 O   0  0  0  0  0  0  0  0  0  0  0  0
   -2.7405    2.2997    1.1727 C   0  0  0  0  0  0  0  0  0  0  0  0
   -2.7509   -1.0055   -3.2282 H   0  0  0  0  0  0  0  0  0  0  0  0
    0.6692    0.1714   -2.4425 H   0  0  0  0  0  0  0  0  0  0  0  0
    2.5141   -0.1029   -4.0187 H   0  0  0  0  0  0  0  0  0  0  0  0
    1.0371    0.4095   -4.8632 H   0  0  0  0  0  0  0  0  0  0  0  0
    0.7016   -1.9285   -5.1920 H   0  0  0  0  0  0  0  0  0  0  0  0
    2.2552   -2.1522   -2.7451 H   0  0  0  0  0  0  0  0  0  0  0  0
    1.0284   -3.8578   -1.9968 H   0  0  0  0  0  0  0  0  0  0  0  0
    1.9379   -0.6257   -0.6412 H   0  0  0  0  0  0  0  0  0  0  0  0
    3.5456   -2.1037   -0.9243 H   0  0  0  0  0  0  0  0  0  0  0  0
   -0.3097   -2.5976   -0.1808 H   0  0  0  0  0  0  0  0  0  0  0  0
    1.9649   -3.1904    0.8670 H   0  0  0  0  0  0  0  0  0  0  0  0
    0.6776   -1.5231    2.9191 H   0  0  0  0  0  0  0  0  0  0  0  0
    0.4665    0.6485    3.9986 H   0  0  0  0  0  0  0  0  0  0  0  0
   -2.6966    2.0265    4.4022 H   0  0  0  0  0  0  0  0  0  0  0  0
   -2.7696   -1.1775    3.9011 H   0  0  0  0  0  0  0  0  0  0  0  0
   -4.1853    0.6850    1.3069 H   0  0  0  0  0  0  0  0  0  0  0  0
    0.0041    3.8161   -0.1905 H   0  0  0  0  0  0  0  0  0  0  0  0
   -0.6158    5.9369   -0.6722 H   0  0  0  0  0  0  0  0  0  0  0  0
   -3.8615    5.4961    0.5849 H   0  0  0  0  0  0  0  0  0  0  0  0
   -5.3654    4.1147    1.4467 H   0  0  0  0  0  0  0  0  0  0  0  0
  1  2  2  0
  2  3  1  0
  3  4  1  0
  4  5  1  0
  5  6  1  0
  6  7  1  0
  7  8  1  0
  8  9  1  0
  7 10  1  0
 10 11  1  0
 10 12  1  0
 12 13  1  0
 12 14  1  0
 14 15  1  0
  3 16  2  3
 16 17  1  0
 17 18  2  3
 18 19  1  0
 19 20  2  3
 20 21  1  0
 20 22  1  0
 22 23  1  0
 22 24  2  3
 16 25  1  0
 25 26  1  0
 26 27  2  0
 27 28  1  0
 28 29  1  0
 28 30  2  0
 30 31  1  0
 31 32  1  0
 31 33  2  0
  5  2  1  0
 17 14  1  0
 33 24  1  0
 33 26  1  0
  5 34  1  6
  7 35  1  1
  8 36  1  0
  8 37  1  0
  9 38  1  0
 10 39  1  6
 11 40  1  0
 12 41  1  6
 13 42  1  0
 14 43  1  6
 15 44  1  0
 18 45  1  0
 19 46  1  0
 21 47  1  0
 23 48  1  0
 24 49  1  0
 27 50  1  0
 29 51  1  0
 30 52  1  0
 32 53  1  0
M  END
>  <clase>  (12) 
Flavonol

>  <carga>  (12) 
0

>  <InChIKey>  (12) 
UGVVAABPZFPYRA-FMWYQGOYSA-N

>  <estado_ionico>  (12) 
neutro

>  <parte_planta>  (12) 
fruto

$$$$
Quercetín-3-glucósido
     RDKit          3D

 53 56  0  0  0  0  0  0  0  0999 V2000
   -3.1167    0.3917    1.2643 O   0  0  0  0  0  0  0  0  0  0  0  0
   -2.2254   -0.1253    0.6277 C   0  0  0  0  0  0  0  0  0  0  0  0
   -0.7975    0.0631    0.3909 C   0  0  0  0  0  0  0  0  0  0  0  0
   -0.6571   -1.2193    0.2599 O   0  0  0  0  0  0  0  0  0  0  0  0
   -2.0085   -1.3184   -0.2860 C   0  0  2  0  0  0  0  0  0  0  0  0
   -2.0435   -1.0425   -1.7104 O   0  0  0  0  0  0  0  0  0  0  0  0
   -3.2374   -0.5015   -2.2789 C   0  0  2  0  0  0  0  0  0  0  0  0
   -3.1654   -0.8515   -3.7750 C   0  0  0  0  0  0  0  0  0  0  0  0
   -3.0952   -2.2678   -3.9335 O   0  0  0  0  0  0  0  0  0  0  0  0
   -3.4648    1.0318   -2.0869 C   0  0  1  0  0  0  0  0  0  0  0  0
   -4.3100    1.2728   -0.9599 O   0  0  0  0  0  0  0  0  0  0  0  0
   -2.2663    2.0344   -2.0729 C   0  0  2  0  0  0  0  0  0  0  0  0
   -1.1579    1.6204   -2.8807 O   0  0  0  0  0  0  0  0  0  0  0  0
   -1.7813    2.7420   -0.7331 C   0  0  1  0  0  0  0  0  0  0  0  0
   -2.6840    2.8254    0.3541 O   0  0  0  0  0  0  0  0  0  0  0  0
    0.0506    1.0810    0.1891 C   0  0  0  0  0  0  0  0  0  0  0  0
   -0.3455    2.4556   -0.2395 C   0  0  0  0  0  0  0  0  0  0  0  0
    0.5239    3.4890   -0.4114 C   0  0  0  0  0  0  0  0  0  0  0  0
    1.9606    3.3799   -0.3847 C   0  0  0  0  0  0  0  0  0  0  0  0
    2.6364    2.7374   -1.3552 C   0  0  0  0  0  0  0  0  0  0  0  0
    2.0960    2.4055   -2.5863 O   0  0  0  0  0  0  0  0  0  0  0  0
    3.9335    2.1316   -1.1619 C   0  0  0  0  0  0  0  0  0  0  0  0
    4.7594    2.1910   -2.2702 O   0  0  0  0  0  0  0  0  0  0  0  0
    4.2964    1.3733   -0.1146 C   0  0  0  0  0  0  0  0  0  0  0  0
    1.4146    0.7536    0.0929 O   0  0  0  0  0  0  0  0  0  0  0  0
    2.1923    0.7474    1.2505 C   0  0  0  0  0  0  0  0  0  0  0  0
    1.6423    0.4144    2.5006 C   0  0  0  0  0  0  0  0  0  0  0  0
    2.4342    0.4081    3.6427 C   0  0  0  0  0  0  0  0  0  0  0  0
    1.8436    0.0688    4.8246 O   0  0  0  0  0  0  0  0  0  0  0  0
    3.7759    0.7407    3.5776 C   0  0  0  0  0  0  0  0  0  0  0  0
    4.3305    1.0791    2.3447 C   0  0  0  0  0  0  0  0  0  0  0  0
    5.6553    1.4408    2.3910 O   0  0  0  0  0  0  0  0  0  0  0  0
    3.5730    1.0738    1.1508 C   0  0  0  0  0  0  0  0  0  0  0  0
   -2.5139   -2.2448   -0.0026 H   0  0  0  0  0  0  0  0  0  0  0  0
   -4.0790   -1.0571   -1.8450 H   0  0  0  0  0  0  0  0  0  0  0  0
   -2.2765   -0.4269   -4.2502 H   0  0  0  0  0  0  0  0  0  0  0  0
   -4.0535   -0.5019   -4.3097 H   0  0  0  0  0  0  0  0  0  0  0  0
   -2.3054   -2.5519   -3.4329 H   0  0  0  0  0  0  0  0  0  0  0  0
   -4.0884    1.3404   -2.9378 H   0  0  0  0  0  0  0  0  0  0  0  0
   -5.1547    0.8000   -1.0801 H   0  0  0  0  0  0  0  0  0  0  0  0
   -2.6818    2.8897   -2.6309 H   0  0  0  0  0  0  0  0  0  0  0  0
   -1.4270    1.6584   -3.8154 H   0  0  0  0  0  0  0  0  0  0  0  0
   -1.7610    3.7939   -1.0554 H   0  0  0  0  0  0  0  0  0  0  0  0
   -3.3601    2.1197    0.2655 H   0  0  0  0  0  0  0  0  0  0  0  0
    0.1754    4.4788   -0.7019 H   0  0  0  0  0  0  0  0  0  0  0  0
    2.4346    3.6457    0.5569 H   0  0  0  0  0  0  0  0  0  0  0  0
    1.1249    2.3849   -2.4859 H   0  0  0  0  0  0  0  0  0  0  0  0
    4.1670    2.4414   -3.0078 H   0  0  0  0  0  0  0  0  0  0  0  0
    5.2659    0.8812   -0.1902 H   0  0  0  0  0  0  0  0  0  0  0  0
    0.5992    0.1425    2.6141 H   0  0  0  0  0  0  0  0  0  0  0  0
    2.5122    0.1080    5.5287 H   0  0  0  0  0  0  0  0  0  0  0  0
    4.4018    0.7526    4.4637 H   0  0  0  0  0  0  0  0  0  0  0  0
    5.8703    1.9456    1.5881 H   0  0  0  0  0  0  0  0  0  0  0  0
  1  2  2  0
  2  3  1  0
  3  4  1  0
  4  5  1  0
  5  6  1  0
  6  7  1  0
  7  8  1  0
  8  9  1  0
  7 10  1  0
 10 11  1  0
 10 12  1  0
 12 13  1  0
 12 14  1  0
 14 15  1  0
  3 16  2  3
 16 17  1  0
 17 18  2  3
 18 19  1  0
 19 20  2  3
 20 21  1  0
 20 22  1  0
 22 23  1  0
 22 24  2  3
 16 25  1  0
 25 26  1  0
 26 27  2  0
 27 28  1  0
 28 29  1  0
 28 30  2  0
 30 31  1  0
 31 32  1  0
 31 33  2  0
  5  2  1  0
 17 14  1  0
 33 24  1  0
 33 26  1  0
  5 34  1  6
  7 35  1  1
  8 36  1  0
  8 37  1  0
  9 38  1  0
 10 39  1  6
 11 40  1  0
 12 41  1  6
 13 42  1  0
 14 43  1  6
 15 44  1  0
 18 45  1  0
 19 46  1  0
 21 47  1  0
 23 48  1  0
 24 49  1  0
 27 50  1  0
 29 51  1  0
 30 52  1  0
 32 53  1  0
M  END
>  <clase>  (13) 
Flavonol

>  <carga>  (13) 
0

>  <InChIKey>  (13) 
UGVVAABPZFPYRA-JUEKAOKDSA-N

>  <estado_ionico>  (13) 
neutro

>  <parte_planta>  (13) 
fruto

$$$$
Quercetín-3-malonilgalactosido
     RDKit          3D

 61 64  0  0  0  0  0  0  0  0999 V2000
   -0.7371   -2.9202   -0.5451 O   0  0  0  0  0  0  0  0  0  0  0  0
    0.3045   -2.3469   -0.3099 C   0  0  0  0  0  0  0  0  0  0  0  0
    0.8812   -1.5544    0.7787 C   0  0  0  0  0  0  0  0  0  0  0  0
    2.0733   -1.6899    0.2958 O   0  0  0  0  0  0  0  0  0  0  0  0
    1.5757   -1.9204   -1.0484 C   0  0  2  0  0  0  0  0  0  0  0  0
    1.5972   -0.6923   -1.8327 O   0  0  0  0  0  0  0  0  0  0  0  0
    0.3851    0.0494   -2.0439 C   0  0  2  0  0  0  0  0  0  0  0  0
    0.0614   -0.0414   -3.5445 C   0  0  0  0  0  0  0  0  0  0  0  0
   -1.2288    0.5327   -3.7944 O   0  0  0  0  0  0  0  0  0  0  0  0
   -1.6384    0.4397   -5.0936 C   0  0  0  0  0  0  0  0  0  0  0  0
   -1.0151   -0.1337   -5.9756 O   0  0  0  0  0  0  0  0  0  0  0  0
   -2.9898    1.0618   -5.2558 C   0  0  0  0  0  0  0  0  0  0  0  0
   -3.1237    1.8277   -6.5288 C   0  0  0  0  0  0  0  0  0  0  0  0
   -2.2630    2.4805   -7.0930 O   0  0  0  0  0  0  0  0  0  0  0  0
   -4.3862    1.8146   -7.0048 O   0  0  0  0  0  0  0  0  0  0  0  0
    0.5754    1.5243   -1.6028 C   0  0  2  0  0  0  0  0  0  0  0  0
    1.8285    2.0457   -2.0682 O   0  0  0  0  0  0  0  0  0  0  0  0
    0.4252    1.8130   -0.0820 C   0  0  2  0  0  0  0  0  0  0  0  0
    0.3400    3.2561    0.0625 O   0  0  0  0  0  0  0  0  0  0  0  0
    1.5826    1.3120    0.8428 C   0  0  1  0  0  0  0  0  0  0  0  0
    2.3366    2.4526    1.2974 O   0  0  0  0  0  0  0  0  0  0  0  0
    0.3385   -0.7380    1.7006 C   0  0  0  0  0  0  0  0  0  0  0  0
    1.1283    0.4576    2.0569 C   0  0  0  0  0  0  0  0  0  0  0  0
    1.5037    0.7693    3.3138 C   0  0  0  0  0  0  0  0  0  0  0  0
    1.1857    0.0980    4.5533 C   0  0  0  0  0  0  0  0  0  0  0  0
    0.0554    0.2761    5.2568 C   0  0  0  0  0  0  0  0  0  0  0  0
   -0.1241   -0.2828    6.5043 O   0  0  0  0  0  0  0  0  0  0  0  0
   -1.0645    1.0965    4.8297 C   0  0  0  0  0  0  0  0  0  0  0  0
   -0.9869    2.4320    5.1734 O   0  0  0  0  0  0  0  0  0  0  0  0
   -2.1368    0.6354    4.1701 C   0  0  0  0  0  0  0  0  0  0  0  0
   -1.0347   -0.5882    1.8484 O   0  0  0  0  0  0  0  0  0  0  0  0
   -1.6809   -1.3933    2.7668 C   0  0  0  0  0  0  0  0  0  0  0  0
   -1.8261   -2.7669    2.5470 C   0  0  0  0  0  0  0  0  0  0  0  0
   -2.5921   -3.5330    3.4219 C   0  0  0  0  0  0  0  0  0  0  0  0
   -2.7579   -4.8738    3.2281 O   0  0  0  0  0  0  0  0  0  0  0  0
   -3.2311   -2.9564    4.5098 C   0  0  0  0  0  0  0  0  0  0  0  0
   -3.0996   -1.5866    4.7220 C   0  0  0  0  0  0  0  0  0  0  0  0
   -3.7434   -1.0044    5.7824 O   0  0  0  0  0  0  0  0  0  0  0  0
   -2.3232   -0.7889    3.8623 C   0  0  0  0  0  0  0  0  0  0  0  0
    2.1150   -2.7310   -1.5465 H   0  0  0  0  0  0  0  0  0  0  0  0
   -0.4665   -0.3607   -1.4935 H   0  0  0  0  0  0  0  0  0  0  0  0
    0.0585   -1.0967   -3.8463 H   0  0  0  0  0  0  0  0  0  0  0  0
    0.8255    0.4787   -4.1354 H   0  0  0  0  0  0  0  0  0  0  0  0
   -3.7267    0.2527   -5.2210 H   0  0  0  0  0  0  0  0  0  0  0  0
   -3.1912    1.7570   -4.4340 H   0  0  0  0  0  0  0  0  0  0  0  0
   -4.3419    2.3656   -7.8157 H   0  0  0  0  0  0  0  0  0  0  0  0
   -0.1912    2.1339   -2.0978 H   0  0  0  0  0  0  0  0  0  0  0  0
    2.4840    1.3230   -2.0072 H   0  0  0  0  0  0  0  0  0  0  0  0
   -0.5440    1.4238    0.2428 H   0  0  0  0  0  0  0  0  0  0  0  0
    1.0274    3.6119   -0.5412 H   0  0  0  0  0  0  0  0  0  0  0  0
    2.3003    0.7288    0.2626 H   0  0  0  0  0  0  0  0  0  0  0  0
    1.6623    3.1521    1.4271 H   0  0  0  0  0  0  0  0  0  0  0  0
    2.1592    1.6266    3.4698 H   0  0  0  0  0  0  0  0  0  0  0  0
    1.9996   -0.4892    4.9695 H   0  0  0  0  0  0  0  0  0  0  0  0
    0.5931   -0.9168    6.6639 H   0  0  0  0  0  0  0  0  0  0  0  0
   -0.2766    2.5052    5.8339 H   0  0  0  0  0  0  0  0  0  0  0  0
   -2.9526    1.2996    3.9084 H   0  0  0  0  0  0  0  0  0  0  0  0
   -1.3720   -3.2407    1.6901 H   0  0  0  0  0  0  0  0  0  0  0  0
   -2.3532   -5.1198    2.3788 H   0  0  0  0  0  0  0  0  0  0  0  0
   -3.8304   -3.5780    5.1664 H   0  0  0  0  0  0  0  0  0  0  0  0
   -4.1406   -1.6975    6.3329 H   0  0  0  0  0  0  0  0  0  0  0  0
  1  2  2  0
  2  3  1  0
  3  4  1  0
  4  5  1  0
  5  6  1  0
  6  7  1  0
  7  8  1  0
  8  9  1  0
  9 10  1  0
 10 11  2  0
 10 12  1  0
 12 13  1  0
 13 14  2  0
 13 15  1  0
  7 16  1  0
 16 17  1  0
 16 18  1  0
 18 19  1  0
 18 20  1  0
 20 21  1  0
  3 22  2  3
 22 23  1  0
 23 24  2  3
 24 25  1  0
 25 26  2  3
 26 27  1  0
 26 28  1  0
 28 29  1  0
 28 30  2  3
 22 31  1  0
 31 32  1  0
 32 33  2  0
 33 34  1  0
 34 35  1  0
 34 36  2  0
 36 37  1  0
 37 38  1  0
 37 39  2  0
  5  2  1  0
 23 20  1  0
 39 30  1  0
 39 32  1  0
  5 40  1  6
  7 41  1  1
  8 42  1  0
  8 43  1  0
 12 44  1  0
 12 45  1  0
 15 46  1  0
 16 47  1  6
 17 48  1  0
 18 49  1  1
 19 50  1  0
 20 51  1  6
 21 52  1  0
 24 53  1  0
 25 54  1  0
 27 55  1  0
 29 56  1  0
 30 57  1  0
 33 58  1  0
 35 59  1  0
 36 60  1  0
 38 61  1  0
M  END
>  <clase>  (14) 
Flavonol

>  <carga>  (14) 
0

>  <InChIKey>  (14) 
SPHQJXJKURTGBW-AEZSFPNCSA-N

>  <estado_ionico>  (14) 
neutro

>  <parte_planta>  (14) 
fruto

$$$$
Quercetín-3-malonilglucósido
     RDKit          3D

 61 64  0  0  0  0  0  0  0  0999 V2000
    2.4710    0.2431   -2.2266 O   0  0  0  0  0  0  0  0  0  0  0  0
    1.6054   -0.5521   -1.9257 C   0  0  0  0  0  0  0  0  0  0  0  0
    0.2574   -0.5092   -1.3493 C   0  0  0  0  0  0  0  0  0  0  0  0
    0.0521   -1.7665   -1.5755 O   0  0  0  0  0  0  0  0  0  0  0  0
    1.4573   -2.0610   -1.7482 C   0  0  2  0  0  0  0  0  0  0  0  0
    2.0168   -2.7170   -0.5831 O   0  0  0  0  0  0  0  0  0  0  0  0
    2.1752   -1.9940    0.6552 C   0  0  2  0  0  0  0  0  0  0  0  0
    3.6690   -2.0799    1.0235 C   0  0  0  0  0  0  0  0  0  0  0  0
    4.4270   -1.3598    0.0231 O   0  0  0  0  0  0  0  0  0  0  0  0
    5.0778   -2.1008   -0.9138 C   0  0  0  0  0  0  0  0  0  0  0  0
    5.1799   -3.3199   -0.9118 O   0  0  0  0  0  0  0  0  0  0  0  0
    5.6702   -1.2112   -1.9615 C   0  0  0  0  0  0  0  0  0  0  0  0
    5.0794   -1.4575   -3.3096 C   0  0  0  0  0  0  0  0  0  0  0  0
    4.0412   -2.0398   -3.5775 O   0  0  0  0  0  0  0  0  0  0  0  0
    5.8181   -0.9010   -4.2938 O   0  0  0  0  0  0  0  0  0  0  0  0
    1.2654   -2.6010    1.7499 C   0  0  1  0  0  0  0  0  0  0  0  0
    1.7727   -2.2587    3.0493 O   0  0  0  0  0  0  0  0  0  0  0  0
   -0.2599   -2.2627    1.6693 C   0  0  2  0  0  0  0  0  0  0  0  0
   -0.9374   -3.0754    0.7059 O   0  0  0  0  0  0  0  0  0  0  0  0
   -0.7349   -0.7628    1.6540 C   0  0  1  0  0  0  0  0  0  0  0  0
    0.2736    0.1117    2.1604 O   0  0  0  0  0  0  0  0  0  0  0  0
   -0.4127    0.3871   -0.6068 C   0  0  0  0  0  0  0  0  0  0  0  0
   -1.3482   -0.1948    0.3639 C   0  0  0  0  0  0  0  0  0  0  0  0
   -2.6768   -0.2873    0.1511 C   0  0  0  0  0  0  0  0  0  0  0  0
   -3.4097    0.2919   -0.9525 C   0  0  0  0  0  0  0  0  0  0  0  0
   -3.7515    1.5874   -1.0089 C   0  0  0  0  0  0  0  0  0  0  0  0
   -4.4613    2.0806   -2.0848 O   0  0  0  0  0  0  0  0  0  0  0  0
   -3.4210    2.5536    0.0220 C   0  0  0  0  0  0  0  0  0  0  0  0
   -4.3191    2.5682    1.0682 O   0  0  0  0  0  0  0  0  0  0  0  0
   -2.3480    3.3571   -0.0077 C   0  0  0  0  0  0  0  0  0  0  0  0
    0.0204    1.6805   -0.3209 O   0  0  0  0  0  0  0  0  0  0  0  0
   -0.2857    2.6388   -1.2694 C   0  0  0  0  0  0  0  0  0  0  0  0
    0.6171    2.8751   -2.3095 C   0  0  0  0  0  0  0  0  0  0  0  0
    0.3393    3.8346   -3.2786 C   0  0  0  0  0  0  0  0  0  0  0  0
    1.2497    4.0024   -4.2806 O   0  0  0  0  0  0  0  0  0  0  0  0
   -0.8201    4.5957   -3.2212 C   0  0  0  0  0  0  0  0  0  0  0  0
   -1.6918    4.4044   -2.1505 C   0  0  0  0  0  0  0  0  0  0  0  0
   -2.8326    5.1646   -2.0635 O   0  0  0  0  0  0  0  0  0  0  0  0
   -1.4285    3.4470   -1.1502 C   0  0  0  0  0  0  0  0  0  0  0  0
    1.6269   -2.6468   -2.6558 H   0  0  0  0  0  0  0  0  0  0  0  0
    1.9589   -0.9319    0.5343 H   0  0  0  0  0  0  0  0  0  0  0  0
    4.0001   -3.1207    1.1090 H   0  0  0  0  0  0  0  0  0  0  0  0
    3.8744   -1.5795    1.9746 H   0  0  0  0  0  0  0  0  0  0  0  0
    5.5126   -0.1590   -1.7022 H   0  0  0  0  0  0  0  0  0  0  0  0
    6.7481   -1.4023   -1.9829 H   0  0  0  0  0  0  0  0  0  0  0  0
    5.3110   -1.0897   -5.1115 H   0  0  0  0  0  0  0  0  0  0  0  0
    1.3531   -3.6928    1.6663 H   0  0  0  0  0  0  0  0  0  0  0  0
    1.2448   -2.7394    3.7105 H   0  0  0  0  0  0  0  0  0  0  0  0
   -0.6541   -2.6385    2.6247 H   0  0  0  0  0  0  0  0  0  0  0  0
   -0.6699   -2.7750   -0.1833 H   0  0  0  0  0  0  0  0  0  0  0  0
   -1.5336   -0.7100    2.4084 H   0  0  0  0  0  0  0  0  0  0  0  0
   -0.0272    1.0246    2.0022 H   0  0  0  0  0  0  0  0  0  0  0  0
   -3.3078   -0.8060    0.8720 H   0  0  0  0  0  0  0  0  0  0  0  0
   -3.7340   -0.3837   -1.7383 H   0  0  0  0  0  0  0  0  0  0  0  0
   -4.5422    3.0420   -1.9439 H   0  0  0  0  0  0  0  0  0  0  0  0
   -4.0326    3.2396    1.7082 H   0  0  0  0  0  0  0  0  0  0  0  0
   -2.1425    4.0594    0.7927 H   0  0  0  0  0  0  0  0  0  0  0  0
    1.5518    2.3321   -2.3700 H   0  0  0  0  0  0  0  0  0  0  0  0
    0.9295    4.6780   -4.8997 H   0  0  0  0  0  0  0  0  0  0  0  0
   -1.0317    5.3345   -3.9852 H   0  0  0  0  0  0  0  0  0  0  0  0
   -2.8462    5.8013   -2.7974 H   0  0  0  0  0  0  0  0  0  0  0  0
  1  2  2  0
  2  3  1  0
  3  4  1  0
  4  5  1  0
  5  6  1  0
  6  7  1  0
  7  8  1  0
  8  9  1  0
  9 10  1  0
 10 11  2  0
 10 12  1  0
 12 13  1  0
 13 14  2  0
 13 15  1  0
  7 16  1  0
 16 17  1  0
 16 18  1  0
 18 19  1  0
 18 20  1  0
 20 21  1  0
  3 22  2  3
 22 23  1  0
 23 24  2  3
 24 25  1  0
 25 26  2  3
 26 27  1  0
 26 28  1  0
 28 29  1  0
 28 30  2  3
 22 31  1  0
 31 32  1  0
 32 33  2  0
 33 34  1  0
 34 35  1  0
 34 36  2  0
 36 37  1  0
 37 38  1  0
 37 39  2  0
  5  2  1  0
 23 20  1  0
 39 30  1  0
 39 32  1  0
  5 40  1  6
  7 41  1  6
  8 42  1  0
  8 43  1  0
 12 44  1  0
 12 45  1  0
 15 46  1  0
 16 47  1  1
 17 48  1  0
 18 49  1  1
 19 50  1  0
 20 51  1  1
 21 52  1  0
 24 53  1  0
 25 54  1  0
 27 55  1  0
 29 56  1  0
 30 57  1  0
 33 58  1  0
 35 59  1  0
 36 60  1  0
 38 61  1  0
M  END
>  <clase>  (15) 
Flavonol

>  <carga>  (15) 
0

>  <InChIKey>  (15) 
SPHQJXJKURTGBW-RDKBWNCDSA-N

>  <estado_ionico>  (15) 
neutro

>  <parte_planta>  (15) 
fruto

$$$$
Isorhamnetín-3-rutinosido
     RDKit          3D

 76 80  0  0  0  0  0  0  0  0999 V2000
   -0.6346   -0.1765    3.7215 O   0  0  0  0  0  0  0  0  0  0  0  0
   -0.8103   -0.4846    2.5606 C   0  0  0  0  0  0  0  0  0  0  0  0
   -0.0770   -1.1839    1.5039 C   0  0  0  0  0  0  0  0  0  0  0  0
   -1.0960   -1.1677    0.7041 O   0  0  0  0  0  0  0  0  0  0  0  0
   -1.8153   -0.1722    1.4607 C   0  0  2  0  0  0  0  0  0  0  0  0
   -1.8330    1.1492    0.8488 O   0  0  0  0  0  0  0  0  0  0  0  0
   -0.5939    1.8235    0.5243 C   0  0  2  0  0  0  0  0  0  0  0  0
   -0.9157    3.3233    0.3317 C   0  0  0  0  0  0  0  0  0  0  0  0
   -1.6289    3.6714   -0.8636 O   0  0  0  0  0  0  0  0  0  0  0  0
   -2.9804    3.2073   -0.9167 C   0  0  2  0  0  0  0  0  0  0  0  0
   -3.0328    1.9703   -1.6331 O   0  0  0  0  0  0  0  0  0  0  0  0
   -3.3007    2.1202   -3.0296 C   0  0  1  0  0  0  0  0  0  0  0  0
   -3.1588    0.7517   -3.6852 C   0  0  0  0  0  0  0  0  0  0  0  0
   -4.7039    2.7106   -3.2671 C   0  0  2  0  0  0  0  0  0  0  0  0
   -4.7087    3.3948   -4.5274 O   0  0  0  0  0  0  0  0  0  0  0  0
   -5.0974    3.6854   -2.1468 C   0  0  2  0  0  0  0  0  0  0  0  0
   -5.9775    4.6931   -2.6719 O   0  0  0  0  0  0  0  0  0  0  0  0
   -3.8472    4.3223   -1.5490 C   0  0  1  0  0  0  0  0  0  0  0  0
   -4.2333    5.3060   -0.5738 O   0  0  0  0  0  0  0  0  0  0  0  0
    0.1590    1.1614   -0.6818 C   0  0  1  0  0  0  0  0  0  0  0  0
    0.1386    1.9491   -1.8865 O   0  0  0  0  0  0  0  0  0  0  0  0
    1.6539    0.9196   -0.3340 C   0  0  2  0  0  0  0  0  0  0  0  0
    2.4639    1.9456   -0.9563 O   0  0  0  0  0  0  0  0  0  0  0  0
    2.1980   -0.4683   -0.7864 C   0  0  1  0  0  0  0  0  0  0  0  0
    3.6195   -0.4676   -0.5605 O   0  0  0  0  0  0  0  0  0  0  0  0
    1.2079   -1.5384    1.3090 C   0  0  0  0  0  0  0  0  0  0  0  0
    1.6309   -1.7014   -0.0889 C   0  0  0  0  0  0  0  0  0  0  0  0
    1.4236   -2.8482   -0.7712 C   0  0  0  0  0  0  0  0  0  0  0  0
    0.9788   -4.0950   -0.1778 C   0  0  0  0  0  0  0  0  0  0  0  0
    1.7780   -4.8749    0.5674 C   0  0  0  0  0  0  0  0  0  0  0  0
    1.2968   -6.0268    1.1558 O   0  0  0  0  0  0  0  0  0  0  0  0
    3.1860   -4.5844    0.7952 C   0  0  0  0  0  0  0  0  0  0  0  0
    3.9565   -4.9643   -0.2856 O   0  0  0  0  0  0  0  0  0  0  0  0
    5.3097   -4.5303   -0.3171 C   0  0  0  0  0  0  0  0  0  0  0  0
    3.6350   -3.9758    1.9081 C   0  0  0  0  0  0  0  0  0  0  0  0
    2.2380   -1.4109    2.2369 O   0  0  0  0  0  0  0  0  0  0  0  0
    2.2387   -2.3570    3.2439 C   0  0  0  0  0  0  0  0  0  0  0  0
    1.6940   -1.9912    4.4780 C   0  0  0  0  0  0  0  0  0  0  0  0
    1.6058   -2.9273    5.5019 C   0  0  0  0  0  0  0  0  0  0  0  0
    1.0335   -2.6107    6.6989 O   0  0  0  0  0  0  0  0  0  0  0  0
    2.0928   -4.2159    5.3355 C   0  0  0  0  0  0  0  0  0  0  0  0
    2.7115   -4.5548    4.1335 C   0  0  0  0  0  0  0  0  0  0  0  0
    3.2265   -5.8170    3.9715 O   0  0  0  0  0  0  0  0  0  0  0  0
    2.8230   -3.6247    3.0832 C   0  0  0  0  0  0  0  0  0  0  0  0
   -2.8327   -0.5050    1.6911 H   0  0  0  0  0  0  0  0  0  0  0  0
    0.0158    1.7631    1.4321 H   0  0  0  0  0  0  0  0  0  0  0  0
   -1.4783    3.7059    1.1920 H   0  0  0  0  0  0  0  0  0  0  0  0
    0.0286    3.8776    0.2929 H   0  0  0  0  0  0  0  0  0  0  0  0
   -3.3510    3.0224    0.0985 H   0  0  0  0  0  0  0  0  0  0  0  0
   -2.5328    2.7715   -3.4685 H   0  0  0  0  0  0  0  0  0  0  0  0
   -2.1534    0.3512   -3.5148 H   0  0  0  0  0  0  0  0  0  0  0  0
   -3.3356    0.8047   -4.7636 H   0  0  0  0  0  0  0  0  0  0  0  0
   -3.8596    0.0326   -3.2469 H   0  0  0  0  0  0  0  0  0  0  0  0
   -5.4663    1.9256   -3.3299 H   0  0  0  0  0  0  0  0  0  0  0  0
   -5.4291    4.0573   -4.4475 H   0  0  0  0  0  0  0  0  0  0  0  0
   -5.6490    3.1564   -1.3599 H   0  0  0  0  0  0  0  0  0  0  0  0
   -6.0052    5.3868   -1.9804 H   0  0  0  0  0  0  0  0  0  0  0  0
   -3.2946    4.8688   -2.3237 H   0  0  0  0  0  0  0  0  0  0  0  0
   -3.4043    5.7205   -0.2672 H   0  0  0  0  0  0  0  0  0  0  0  0
   -0.3273    0.2264   -0.9594 H   0  0  0  0  0  0  0  0  0  0  0  0
   -0.7760    2.2900   -1.9742 H   0  0  0  0  0  0  0  0  0  0  0  0
    1.8486    1.0262    0.7379 H   0  0  0  0  0  0  0  0  0  0  0  0
    1.9227    2.2535   -1.7189 H   0  0  0  0  0  0  0  0  0  0  0  0
    2.0707   -0.5509   -1.8731 H   0  0  0  0  0  0  0  0  0  0  0  0
    3.9043    0.4444   -0.7726 H   0  0  0  0  0  0  0  0  0  0  0  0
    1.6723   -2.9115   -1.8286 H   0  0  0  0  0  0  0  0  0  0  0  0
   -0.0482   -4.3936   -0.3618 H   0  0  0  0  0  0  0  0  0  0  0  0
    2.0137   -6.3592    1.7293 H   0  0  0  0  0  0  0  0  0  0  0  0
    5.7443   -4.8548   -1.2672 H   0  0  0  0  0  0  0  0  0  0  0  0
    5.8873   -4.9918    0.4902 H   0  0  0  0  0  0  0  0  0  0  0  0
    5.3748   -3.4380   -0.2736 H   0  0  0  0  0  0  0  0  0  0  0  0
    4.6855   -3.7431    2.0414 H   0  0  0  0  0  0  0  0  0  0  0  0
    1.3470   -0.9762    4.6303 H   0  0  0  0  0  0  0  0  0  0  0  0
    0.6571   -1.7155    6.6322 H   0  0  0  0  0  0  0  0  0  0  0  0
    2.0005   -4.9266    6.1499 H   0  0  0  0  0  0  0  0  0  0  0  0
    3.1366   -6.2969    4.8124 H   0  0  0  0  0  0  0  0  0  0  0  0
  1  2  2  0
  2  3  1  0
  3  4  1  0
  4  5  1  0
  5  6  1  0
  6  7  1  0
  7  8  1  0
  8  9  1  0
  9 10  1  0
 10 11  1  0
 11 12  1  0
 12 13  1  0
 12 14  1  0
 14 15  1  0
 14 16  1  0
 16 17  1  0
 16 18  1  0
 18 19  1  0
  7 20  1  0
 20 21  1  0
 20 22  1  0
 22 23  1  0
 22 24  1  0
 24 25  1  0
  3 26  2  3
 26 27  1  0
 27 28  2  3
 28 29  1  0
 29 30  2  3
 30 31  1  0
 30 32  1  0
 32 33  1  0
 33 34  1  0
 32 35  2  3
 26 36  1  0
 36 37  1  0
 37 38  2  0
 38 39  1  0
 39 40  1  0
 39 41  2  0
 41 42  1  0
 42 43  1  0
 42 44  2  0
  5  2  1  0
 27 24  1  0
 44 35  1  0
 18 10  1  0
 44 37  1  0
  5 45  1  1
  7 46  1  1
  8 47  1  0
  8 48  1  0
 10 49  1  1
 12 50  1  6
 13 51  1  0
 13 52  1  0
 13 53  1  0
 14 54  1  6
 15 55  1  0
 16 56  1  1
 17 57  1  0
 18 58  1  6
 19 59  1  0
 20 60  1  6
 21 61  1  0
 22 62  1  1
 23 63  1  0
 24 64  1  6
 25 65  1  0
 28 66  1  0
 29 67  1  0
 31 68  1  0
 34 69  1  0
 34 70  1  0
 34 71  1  0
 35 72  1  0
 38 73  1  0
 40 74  1  0
 41 75  1  0
 43 76  1  0
M  END
>  <clase>  (16) 
Flavonol

>  <carga>  (16) 
0

>  <InChIKey>  (16) 
OPTNFNUJWZCIGB-BIKOSTKOSA-N

>  <estado_ionico>  (16) 
neutro

>  <parte_planta>  (16) 
fruto

$$$$
Isorhamnetín-3-galactosido
     RDKit          3D

 56 59  0  0  0  0  0  0  0  0999 V2000
    0.2639    1.6947    3.2278 O   0  0  0  0  0  0  0  0  0  0  0  0
    0.9440    1.3866    2.2721 C   0  0  0  0  0  0  0  0  0  0  0  0
    0.7025    1.0785    0.8611 C   0  0  0  0  0  0  0  0  0  0  0  0
    1.9503    1.2344    0.5639 O   0  0  0  0  0  0  0  0  0  0  0  0
    2.3790    0.9947    1.9353 C   0  0  2  0  0  0  0  0  0  0  0  0
    2.8320   -0.3759    2.1659 O   0  0  0  0  0  0  0  0  0  0  0  0
    1.8774   -1.3608    2.6301 C   0  0  2  0  0  0  0  0  0  0  0  0
    2.6502   -2.3396    3.5327 C   0  0  0  0  0  0  0  0  0  0  0  0
    1.7841   -3.3320    4.0621 O   0  0  0  0  0  0  0  0  0  0  0  0
    1.2108   -2.1244    1.4490 C   0  0  2  0  0  0  0  0  0  0  0  0
    1.6188   -1.6111    0.1665 O   0  0  0  0  0  0  0  0  0  0  0  0
   -0.3381   -2.2994    1.4604 C   0  0  2  0  0  0  0  0  0  0  0  0
   -0.7335   -2.8293    0.1775 O   0  0  0  0  0  0  0  0  0  0  0  0
   -1.3171   -1.1452    1.8599 C   0  0  1  0  0  0  0  0  0  0  0  0
   -1.0873   -0.7832    3.2276 O   0  0  0  0  0  0  0  0  0  0  0  0
   -0.3816    0.6059    0.2261 C   0  0  0  0  0  0  0  0  0  0  0  0
   -1.5068    0.1232    1.0144 C   0  0  0  0  0  0  0  0  0  0  0  0
   -2.6775    0.7934    1.0981 C   0  0  0  0  0  0  0  0  0  0  0  0
   -3.0361    2.0172    0.4150 C   0  0  0  0  0  0  0  0  0  0  0  0
   -3.4658    2.0921   -0.8524 C   0  0  0  0  0  0  0  0  0  0  0  0
   -3.7840    3.3191   -1.4053 O   0  0  0  0  0  0  0  0  0  0  0  0
   -3.6320    0.9471   -1.7349 C   0  0  0  0  0  0  0  0  0  0  0  0
   -4.8235    0.2932   -1.5026 O   0  0  0  0  0  0  0  0  0  0  0  0
   -5.0498   -0.9288   -2.1926 C   0  0  0  0  0  0  0  0  0  0  0  0
   -2.7057    0.6095   -2.6517 C   0  0  0  0  0  0  0  0  0  0  0  0
   -0.3700    0.1571   -1.0943 O   0  0  0  0  0  0  0  0  0  0  0  0
   -0.3169    1.1148   -2.0857 C   0  0  0  0  0  0  0  0  0  0  0  0
    0.8853    1.7581   -2.3879 C   0  0  0  0  0  0  0  0  0  0  0  0
    0.9281    2.7069   -3.4044 C   0  0  0  0  0  0  0  0  0  0  0  0
    2.1232    3.3208   -3.6442 O   0  0  0  0  0  0  0  0  0  0  0  0
   -0.2054    3.0130   -4.1500 C   0  0  0  0  0  0  0  0  0  0  0  0
   -1.3916    2.3293   -3.8821 C   0  0  0  0  0  0  0  0  0  0  0  0
   -2.5186    2.6082   -4.6133 O   0  0  0  0  0  0  0  0  0  0  0  0
   -1.4577    1.3585   -2.8683 C   0  0  0  0  0  0  0  0  0  0  0  0
    3.1342    1.7214    2.2490 H   0  0  0  0  0  0  0  0  0  0  0  0
    1.1479   -0.8876    3.2814 H   0  0  0  0  0  0  0  0  0  0  0  0
    3.4576   -2.8278    2.9751 H   0  0  0  0  0  0  0  0  0  0  0  0
    3.1137   -1.7942    4.3625 H   0  0  0  0  0  0  0  0  0  0  0  0
    2.3083   -3.8772    4.6751 H   0  0  0  0  0  0  0  0  0  0  0  0
    1.6133   -3.1459    1.4294 H   0  0  0  0  0  0  0  0  0  0  0  0
    2.5144   -1.2398    0.2856 H   0  0  0  0  0  0  0  0  0  0  0  0
   -0.5303   -3.0974    2.1909 H   0  0  0  0  0  0  0  0  0  0  0  0
   -0.1614   -2.3590   -0.4671 H   0  0  0  0  0  0  0  0  0  0  0  0
   -2.3048   -1.6307    1.8620 H   0  0  0  0  0  0  0  0  0  0  0  0
   -1.2671    0.1705    3.3421 H   0  0  0  0  0  0  0  0  0  0  0  0
   -3.4609    0.4224    1.7591 H   0  0  0  0  0  0  0  0  0  0  0  0
   -2.9909    2.9268    1.0080 H   0  0  0  0  0  0  0  0  0  0  0  0
   -3.9798    3.1536   -2.3465 H   0  0  0  0  0  0  0  0  0  0  0  0
   -6.0069   -1.3348   -1.8520 H   0  0  0  0  0  0  0  0  0  0  0  0
   -5.1218   -0.7612   -3.2721 H   0  0  0  0  0  0  0  0  0  0  0  0
   -4.2711   -1.6626   -1.9596 H   0  0  0  0  0  0  0  0  0  0  0  0
   -2.8275   -0.2374   -3.3160 H   0  0  0  0  0  0  0  0  0  0  0  0
    1.7952    1.5174   -1.8505 H   0  0  0  0  0  0  0  0  0  0  0  0
    2.0130    3.9674   -4.3600 H   0  0  0  0  0  0  0  0  0  0  0  0
   -0.1627    3.7611   -4.9328 H   0  0  0  0  0  0  0  0  0  0  0  0
   -2.2956    3.2481   -5.3091 H   0  0  0  0  0  0  0  0  0  0  0  0
  1  2  2  0
  2  3  1  0
  3  4  1  0
  4  5  1  0
  5  6  1  0
  6  7  1  0
  7  8  1  0
  8  9  1  0
  7 10  1  0
 10 11  1  0
 10 12  1  0
 12 13  1  0
 12 14  1  0
 14 15  1  0
  3 16  2  3
 16 17  1  0
 17 18  2  3
 18 19  1  0
 19 20  2  3
 20 21  1  0
 20 22  1  0
 22 23  1  0
 23 24  1  0
 22 25  2  3
 16 26  1  0
 26 27  1  0
 27 28  2  0
 28 29  1  0
 29 30  1  0
 29 31  2  0
 31 32  1  0
 32 33  1  0
 32 34  2  0
  5  2  1  0
 17 14  1  0
 34 25  1  0
 34 27  1  0
  5 35  1  1
  7 36  1  1
  8 37  1  0
  8 38  1  0
  9 39  1  0
 10 40  1  6
 11 41  1  0
 12 42  1  1
 13 43  1  0
 14 44  1  1
 15 45  1  0
 18 46  1  0
 19 47  1  0
 21 48  1  0
 24 49  1  0
 24 50  1  0
 24 51  1  0
 25 52  1  0
 28 53  1  0
 30 54  1  0
 31 55  1  0
 33 56  1  0
M  END
>  <clase>  (17) 
Flavonol

>  <carga>  (17) 
0

>  <InChIKey>  (17) 
UMHINPBLAJFHOB-RSVWRCHESA-N

>  <estado_ionico>  (17) 
neutro

>  <parte_planta>  (17) 
fruto

$$$$
Quercetín-3-rhamnosido
     RDKit          3D

 52 55  0  0  0  0  0  0  0  0999 V2000
   -2.1173   -0.6093   -3.2808 O   0  0  0  0  0  0  0  0  0  0  0  0
   -1.8690    0.3850   -2.6360 C   0  0  0  0  0  0  0  0  0  0  0  0
   -1.6722    0.7244   -1.2262 C   0  0  0  0  0  0  0  0  0  0  0  0
   -1.9966    1.9554   -1.4592 O   0  0  0  0  0  0  0  0  0  0  0  0
   -1.5414    1.8555   -2.8497 C   0  0  1  0  0  0  0  0  0  0  0  0
   -0.1304    2.1851   -3.0269 O   0  0  0  0  0  0  0  0  0  0  0  0
    0.6769    1.2924   -3.8102 C   0  0  1  0  0  0  0  0  0  0  0  0
    1.1387    2.0726   -5.0403 C   0  0  0  0  0  0  0  0  0  0  0  0
    1.8890    0.7707   -2.9859 C   0  0  2  0  0  0  0  0  0  0  0  0
    2.5863   -0.2474   -3.7085 O   0  0  0  0  0  0  0  0  0  0  0  0
    1.5284    0.2381   -1.5710 C   0  0  2  0  0  0  0  0  0  0  0  0
    2.7456   -0.0612   -0.8375 O   0  0  0  0  0  0  0  0  0  0  0  0
    0.6488   -1.0650   -1.5530 C   0  0  1  0  0  0  0  0  0  0  0  0
    1.5112   -2.2158   -1.5853 O   0  0  0  0  0  0  0  0  0  0  0  0
   -1.2122    0.0624   -0.1473 C   0  0  0  0  0  0  0  0  0  0  0  0
   -0.2610   -1.0916   -0.2931 C   0  0  0  0  0  0  0  0  0  0  0  0
   -0.0018   -2.0130    0.6673 C   0  0  0  0  0  0  0  0  0  0  0  0
   -0.3163   -1.7924    2.0574 C   0  0  0  0  0  0  0  0  0  0  0  0
    0.4280   -0.9268    2.7728 C   0  0  0  0  0  0  0  0  0  0  0  0
    1.6988   -0.5125    2.3975 O   0  0  0  0  0  0  0  0  0  0  0  0
   -0.0383   -0.2013    3.9309 C   0  0  0  0  0  0  0  0  0  0  0  0
    0.9525    0.0708    4.8606 O   0  0  0  0  0  0  0  0  0  0  0  0
   -1.2396    0.3732    4.0868 C   0  0  0  0  0  0  0  0  0  0  0  0
   -1.3094    0.6526    1.1252 O   0  0  0  0  0  0  0  0  0  0  0  0
   -2.5028    0.4907    1.8354 C   0  0  0  0  0  0  0  0  0  0  0  0
   -3.7500    0.5196    1.1807 C   0  0  0  0  0  0  0  0  0  0  0  0
   -4.9322    0.3482    1.8951 C   0  0  0  0  0  0  0  0  0  0  0  0
   -6.1480    0.3708    1.2771 O   0  0  0  0  0  0  0  0  0  0  0  0
   -4.9090    0.1441    3.2612 C   0  0  0  0  0  0  0  0  0  0  0  0
   -3.6857    0.1212    3.9234 C   0  0  0  0  0  0  0  0  0  0  0  0
   -3.7637   -0.1247    5.2730 O   0  0  0  0  0  0  0  0  0  0  0  0
   -2.4591    0.3159    3.2447 C   0  0  0  0  0  0  0  0  0  0  0  0
   -2.1950    2.3900   -3.5438 H   0  0  0  0  0  0  0  0  0  0  0  0
    0.0958    0.4430   -4.1820 H   0  0  0  0  0  0  0  0  0  0  0  0
    0.2739    2.4594   -5.5906 H   0  0  0  0  0  0  0  0  0  0  0  0
    1.7269    1.4488   -5.7193 H   0  0  0  0  0  0  0  0  0  0  0  0
    1.7398    2.9413   -4.7500 H   0  0  0  0  0  0  0  0  0  0  0  0
    2.6005    1.5940   -2.8393 H   0  0  0  0  0  0  0  0  0  0  0  0
    3.0825    0.1711   -4.4335 H   0  0  0  0  0  0  0  0  0  0  0  0
    1.0527    1.0573   -1.0241 H   0  0  0  0  0  0  0  0  0  0  0  0
    3.2849    0.7500   -0.8276 H   0  0  0  0  0  0  0  0  0  0  0  0
    0.0448   -1.1544   -2.4511 H   0  0  0  0  0  0  0  0  0  0  0  0
    2.4207   -1.8528   -1.5947 H   0  0  0  0  0  0  0  0  0  0  0  0
    0.6848   -2.8390    0.4893 H   0  0  0  0  0  0  0  0  0  0  0  0
   -1.2901   -2.1353    2.3945 H   0  0  0  0  0  0  0  0  0  0  0  0
    1.9046   -0.9002    1.5261 H   0  0  0  0  0  0  0  0  0  0  0  0
    1.7904   -0.1293    4.3953 H   0  0  0  0  0  0  0  0  0  0  0  0
   -1.3628    0.9885    4.9790 H   0  0  0  0  0  0  0  0  0  0  0  0
   -3.8191    0.6930    0.1159 H   0  0  0  0  0  0  0  0  0  0  0  0
   -6.0199    0.5052    0.3242 H   0  0  0  0  0  0  0  0  0  0  0  0
   -5.8337   -0.0008    3.8116 H   0  0  0  0  0  0  0  0  0  0  0  0
   -2.9001   -0.4440    5.5854 H   0  0  0  0  0  0  0  0  0  0  0  0
  1  2  2  0
  2  3  1  0
  3  4  1  0
  4  5  1  0
  5  6  1  0
  6  7  1  0
  7  8  1  0
  7  9  1  0
  9 10  1  0
  9 11  1  0
 11 12  1  0
 11 13  1  0
 13 14  1  0
  3 15  2  3
 15 16  1  0
 16 17  2  3
 17 18  1  0
 18 19  2  3
 19 20  1  0
 19 21  1  0
 21 22  1  0
 21 23  2  3
 15 24  1  0
 24 25  1  0
 25 26  2  0
 26 27  1  0
 27 28  1  0
 27 29  2  0
 29 30  1  0
 30 31  1  0
 30 32  2  0
  5  2  1  0
 16 13  1  0
 32 23  1  0
 32 25  1  0
  5 33  1  6
  7 34  1  6
  8 35  1  0
  8 36  1  0
  8 37  1  0
  9 38  1  1
 10 39  1  0
 11 40  1  1
 12 41  1  0
 13 42  1  6
 14 43  1  0
 17 44  1  0
 18 45  1  0
 20 46  1  0
 22 47  1  0
 23 48  1  0
 26 49  1  0
 28 50  1  0
 29 51  1  0
 31 52  1  0
M  END
>  <clase>  (18) 
Flavonol

>  <carga>  (18) 
0

>  <InChIKey>  (18) 
IAXDZIGIBHKHRV-DEGXXVNDSA-N

>  <estado_ionico>  (18) 
neutro

>  <parte_planta>  (18) 
fruto

$$$$
Kaempferol-3-glucósido
     RDKit          3D

 52 55  0  0  0  0  0  0  0  0999 V2000
    0.6611   -2.1943    3.1339 O   0  0  0  0  0  0  0  0  0  0  0  0
    1.1676   -1.2739    2.5280 C   0  0  0  0  0  0  0  0  0  0  0  0
    0.7275   -0.3481    1.4796 C   0  0  0  0  0  0  0  0  0  0  0  0
    1.7479    0.4230    1.6577 O   0  0  0  0  0  0  0  0  0  0  0  0
    2.5335   -0.6335    2.2867 C   0  0  2  0  0  0  0  0  0  0  0  0
    3.4735   -1.2900    1.3848 O   0  0  0  0  0  0  0  0  0  0  0  0
    3.0160   -2.3986    0.5643 C   0  0  2  0  0  0  0  0  0  0  0  0
    4.2233   -3.3225    0.3056 C   0  0  0  0  0  0  0  0  0  0  0  0
    5.2796   -2.6789   -0.4027 O   0  0  0  0  0  0  0  0  0  0  0  0
    2.3307   -1.8755   -0.7324 C   0  0  1  0  0  0  0  0  0  0  0  0
    3.2702   -1.8539   -1.8390 O   0  0  0  0  0  0  0  0  0  0  0  0
    1.0814   -2.6641   -1.2178 C   0  0  2  0  0  0  0  0  0  0  0  0
    0.6461   -2.0262   -2.4396 O   0  0  0  0  0  0  0  0  0  0  0  0
   -0.1308   -2.8901   -0.2480 C   0  0  1  0  0  0  0  0  0  0  0  0
    0.2704   -3.8124    0.7719 O   0  0  0  0  0  0  0  0  0  0  0  0
   -0.2404   -0.4512    0.5529 C   0  0  0  0  0  0  0  0  0  0  0  0
   -0.9159   -1.7308    0.3788 C   0  0  0  0  0  0  0  0  0  0  0  0
   -2.1644   -1.9542    0.8470 C   0  0  0  0  0  0  0  0  0  0  0  0
   -3.0111   -0.9970    1.5266 C   0  0  0  0  0  0  0  0  0  0  0  0
   -3.7228   -0.0308    0.9329 C   0  0  0  0  0  0  0  0  0  0  0  0
   -4.4613    0.8543    1.6878 O   0  0  0  0  0  0  0  0  0  0  0  0
   -3.7743    0.1914   -0.4911 C   0  0  0  0  0  0  0  0  0  0  0  0
   -3.0702    1.1180   -1.1547 C   0  0  0  0  0  0  0  0  0  0  0  0
   -0.3713    0.4165   -0.5313 O   0  0  0  0  0  0  0  0  0  0  0  0
   -0.8032    1.6978   -0.2548 C   0  0  0  0  0  0  0  0  0  0  0  0
    0.1103    2.6566    0.1946 C   0  0  0  0  0  0  0  0  0  0  0  0
   -0.3292    3.9481    0.4659 C   0  0  0  0  0  0  0  0  0  0  0  0
    0.5263    4.9058    0.9263 O   0  0  0  0  0  0  0  0  0  0  0  0
   -1.6570    4.3095    0.2740 C   0  0  0  0  0  0  0  0  0  0  0  0
   -2.5513    3.3673   -0.2310 C   0  0  0  0  0  0  0  0  0  0  0  0
   -3.8616    3.7171   -0.4366 O   0  0  0  0  0  0  0  0  0  0  0  0
   -2.1329    2.0605   -0.5298 C   0  0  0  0  0  0  0  0  0  0  0  0
    3.0330   -0.2724    3.1905 H   0  0  0  0  0  0  0  0  0  0  0  0
    2.3319   -2.9805    1.1756 H   0  0  0  0  0  0  0  0  0  0  0  0
    4.6442   -3.6576    1.2592 H   0  0  0  0  0  0  0  0  0  0  0  0
    3.9168   -4.2062   -0.2635 H   0  0  0  0  0  0  0  0  0  0  0  0
    4.8449   -2.2115   -1.1495 H   0  0  0  0  0  0  0  0  0  0  0  0
    2.0802   -0.8199   -0.6320 H   0  0  0  0  0  0  0  0  0  0  0  0
    2.7224   -1.6029   -2.6141 H   0  0  0  0  0  0  0  0  0  0  0  0
    1.4427   -3.6558   -1.5229 H   0  0  0  0  0  0  0  0  0  0  0  0
   -0.1002   -2.5415   -2.7953 H   0  0  0  0  0  0  0  0  0  0  0  0
   -0.8663   -3.4408   -0.8524 H   0  0  0  0  0  0  0  0  0  0  0  0
   -0.1101   -3.5370    1.6309 H   0  0  0  0  0  0  0  0  0  0  0  0
   -2.5974   -2.9515    0.7751 H   0  0  0  0  0  0  0  0  0  0  0  0
   -3.0759   -1.1041    2.6073 H   0  0  0  0  0  0  0  0  0  0  0  0
   -4.6770    1.6103    1.1086 H   0  0  0  0  0  0  0  0  0  0  0  0
   -4.4585   -0.4508   -1.0402 H   0  0  0  0  0  0  0  0  0  0  0  0
   -3.1877    1.2279   -2.2290 H   0  0  0  0  0  0  0  0  0  0  0  0
    1.1542    2.3924    0.3163 H   0  0  0  0  0  0  0  0  0  0  0  0
    1.4128    4.5163    1.0167 H   0  0  0  0  0  0  0  0  0  0  0  0
   -1.9684    5.3224    0.5073 H   0  0  0  0  0  0  0  0  0  0  0  0
   -3.9572    4.6692   -0.2639 H   0  0  0  0  0  0  0  0  0  0  0  0
  1  2  2  0
  2  3  1  0
  3  4  1  0
  4  5  1  0
  5  6  1  0
  6  7  1  0
  7  8  1  0
  8  9  1  0
  7 10  1  0
 10 11  1  0
 10 12  1  0
 12 13  1  0
 12 14  1  0
 14 15  1  0
  3 16  2  3
 16 17  1  0
 17 18  2  3
 18 19  1  0
 19 20  2  3
 20 21  1  0
 20 22  1  0
 22 23  2  3
 16 24  1  0
 24 25  1  0
 25 26  2  0
 26 27  1  0
 27 28  1  0
 27 29  2  0
 29 30  1  0
 30 31  1  0
 30 32  2  0
  5  2  1  0
 17 14  1  0
 32 23  1  0
 32 25  1  0
  5 33  1  1
  7 34  1  1
  8 35  1  0
  8 36  1  0
  9 37  1  0
 10 38  1  1
 11 39  1  0
 12 40  1  6
 13 41  1  0
 14 42  1  6
 15 43  1  0
 18 44  1  0
 19 45  1  0
 21 46  1  0
 22 47  1  0
 23 48  1  0
 26 49  1  0
 28 50  1  0
 29 51  1  0
 31 52  1  0
M  END
>  <clase>  (19) 
Flavonol

>  <carga>  (19) 
0

>  <InChIKey>  (19) 
DZFHWXFXTFPAOE-JUEKAOKDSA-N

>  <estado_ionico>  (19) 
neutro

>  <parte_planta>  (19) 
hojas

$$$$
Quercetina
     RDKit          3D

 32 34  0  0  0  0  0  0  0  0999 V2000
    0.2940    2.7468    3.8854 O   0  0  0  0  0  0  0  0  0  0  0  0
   -0.0104    2.3409    2.7773 C   0  0  0  0  0  0  0  0  0  0  0  0
   -0.2977    2.9806    1.4923 C   0  0  0  0  0  0  0  0  0  0  0  0
   -0.3465    4.1955    1.0794 O   0  0  0  0  0  0  0  0  0  0  0  0
   -0.4613    1.7586    0.9065 C   0  0  0  0  0  0  0  0  0  0  0  0
   -0.2722    1.0510    2.1599 C   0  0  0  0  0  0  0  0  0  0  0  0
   -0.2769   -0.1458    2.7534 C   0  0  0  0  0  0  0  0  0  0  0  0
   -0.5204   -1.4928    2.3078 C   0  0  0  0  0  0  0  0  0  0  0  0
   -1.4908   -2.0298    1.5580 C   0  0  0  0  0  0  0  0  0  0  0  0
   -1.5248   -3.4091    1.4279 O   0  0  0  0  0  0  0  0  0  0  0  0
   -2.5562   -1.3501    0.8483 C   0  0  0  0  0  0  0  0  0  0  0  0
   -3.7903   -1.3880    1.4605 O   0  0  0  0  0  0  0  0  0  0  0  0
   -2.4271   -0.8105   -0.3717 C   0  0  0  0  0  0  0  0  0  0  0  0
   -0.7585    1.4265   -0.2930 O   0  0  0  0  0  0  0  0  0  0  0  0
   -0.2678    0.2820   -0.8649 C   0  0  0  0  0  0  0  0  0  0  0  0
    1.0305    0.2682   -1.3767 C   0  0  0  0  0  0  0  0  0  0  0  0
    1.4760   -0.8544   -2.0658 C   0  0  0  0  0  0  0  0  0  0  0  0
    2.7543   -0.8398   -2.5420 O   0  0  0  0  0  0  0  0  0  0  0  0
    0.6391   -1.9472   -2.2758 C   0  0  0  0  0  0  0  0  0  0  0  0
   -0.6625   -1.9115   -1.7791 C   0  0  0  0  0  0  0  0  0  0  0  0
   -1.4493   -3.0067   -2.0227 O   0  0  0  0  0  0  0  0  0  0  0  0
   -1.1298   -0.8044   -1.0573 C   0  0  0  0  0  0  0  0  0  0  0  0
   -0.1513    4.7856    1.8322 H   0  0  0  0  0  0  0  0  0  0  0  0
   -0.0152   -0.1271    3.8148 H   0  0  0  0  0  0  0  0  0  0  0  0
    0.1605   -2.2089    2.7734 H   0  0  0  0  0  0  0  0  0  0  0  0
   -2.0363   -3.6174    0.6252 H   0  0  0  0  0  0  0  0  0  0  0  0
   -3.6643   -1.7847    2.3425 H   0  0  0  0  0  0  0  0  0  0  0  0
   -3.2601   -0.3258   -0.8686 H   0  0  0  0  0  0  0  0  0  0  0  0
    1.6824    1.1275   -1.2537 H   0  0  0  0  0  0  0  0  0  0  0  0
    2.9290   -1.6832   -2.9921 H   0  0  0  0  0  0  0  0  0  0  0  0
    0.9766   -2.8227   -2.8205 H   0  0  0  0  0  0  0  0  0  0  0  0
   -2.3770   -2.7317   -1.9171 H   0  0  0  0  0  0  0  0  0  0  0  0
  1  2  2  0
  2  3  1  0
  3  4  1  0
  3  5  2  0
  5  6  1  0
  6  7  2  3
  7  8  1  0
  8  9  2  3
  9 10  1  0
  9 11  1  0
 11 12  1  0
 11 13  2  3
  5 14  1  0
 14 15  1  0
 15 16  2  0
 16 17  1  0
 17 18  1  0
 17 19  2  0
 19 20  1  0
 20 21  1  0
 20 22  2  0
  6  2  1  0
 22 13  1  0
 22 15  1  0
  4 23  1  0
  7 24  1  0
  8 25  1  0
 10 26  1  0
 12 27  1  0
 13 28  1  0
 16 29  1  0
 18 30  1  0
 19 31  1  0
 21 32  1  0
M  END
>  <clase>  (20) 
Flavonol

>  <carga>  (20) 
0

>  <InChIKey>  (20) 
XTAUXAINDDZIRC-UHFFFAOYSA-N

>  <estado_ionico>  (20) 
neutro

>  <parte_planta>  (20) 
hojas

$$$$
Isorhamnetina
     RDKit          3D

 35 37  0  0  0  0  0  0  0  0999 V2000
   -4.5558    2.4122   -0.1162 O   0  0  0  0  0  0  0  0  0  0  0  0
   -3.5704    1.8182   -0.5177 C   0  0  0  0  0  0  0  0  0  0  0  0
   -2.9874    1.5739   -1.8375 C   0  0  0  0  0  0  0  0  0  0  0  0
   -3.3165    1.8807   -3.0403 O   0  0  0  0  0  0  0  0  0  0  0  0
   -1.9333    0.9197   -1.2672 C   0  0  0  0  0  0  0  0  0  0  0  0
   -2.4886    1.0457    0.0714 C   0  0  0  0  0  0  0  0  0  0  0  0
   -2.3364    0.7281    1.3616 C   0  0  0  0  0  0  0  0  0  0  0  0
   -1.3576   -0.0292    2.1019 C   0  0  0  0  0  0  0  0  0  0  0  0
   -0.8649   -1.2593    1.8836 C   0  0  0  0  0  0  0  0  0  0  0  0
    0.0276   -1.8497    2.7642 O   0  0  0  0  0  0  0  0  0  0  0  0
   -1.0959   -2.0924    0.7197 C   0  0  0  0  0  0  0  0  0  0  0  0
   -2.1020   -3.0086    0.9220 O   0  0  0  0  0  0  0  0  0  0  0  0
   -2.4035   -3.8965   -0.1463 C   0  0  0  0  0  0  0  0  0  0  0  0
   -0.3253   -1.9663   -0.3787 C   0  0  0  0  0  0  0  0  0  0  0  0
   -0.9078    0.3597   -1.7933 O   0  0  0  0  0  0  0  0  0  0  0  0
    0.2961    0.2969   -1.1404 C   0  0  0  0  0  0  0  0  0  0  0  0
    1.1819    1.3715   -1.2588 C   0  0  0  0  0  0  0  0  0  0  0  0
    2.4485    1.2655   -0.6945 C   0  0  0  0  0  0  0  0  0  0  0  0
    3.3507    2.2848   -0.7820 O   0  0  0  0  0  0  0  0  0  0  0  0
    2.8367    0.1119   -0.0213 C   0  0  0  0  0  0  0  0  0  0  0  0
    1.9435   -0.9518    0.0915 C   0  0  0  0  0  0  0  0  0  0  0  0
    2.3621   -2.0326    0.8200 O   0  0  0  0  0  0  0  0  0  0  0  0
    0.6707   -0.8875   -0.4917 C   0  0  0  0  0  0  0  0  0  0  0  0
   -4.1643    2.3647   -3.0145 H   0  0  0  0  0  0  0  0  0  0  0  0
   -3.1026    1.1359    2.0261 H   0  0  0  0  0  0  0  0  0  0  0  0
   -1.0848    0.4628    3.0351 H   0  0  0  0  0  0  0  0  0  0  0  0
    0.1544   -1.2556    3.5225 H   0  0  0  0  0  0  0  0  0  0  0  0
   -2.7333   -3.3455   -1.0332 H   0  0  0  0  0  0  0  0  0  0  0  0
   -3.2269   -4.5416    0.1743 H   0  0  0  0  0  0  0  0  0  0  0  0
   -1.5458   -4.5362   -0.3786 H   0  0  0  0  0  0  0  0  0  0  0  0
   -0.4426   -2.5802   -1.2630 H   0  0  0  0  0  0  0  0  0  0  0  0
    0.8774    2.2591   -1.8028 H   0  0  0  0  0  0  0  0  0  0  0  0
    2.9677    3.0002   -1.3159 H   0  0  0  0  0  0  0  0  0  0  0  0
    3.8240    0.0448    0.4259 H   0  0  0  0  0  0  0  0  0  0  0  0
    1.5661   -2.4655    1.1862 H   0  0  0  0  0  0  0  0  0  0  0  0
  1  2  2  0
  2  3  1  0
  3  4  1  0
  3  5  2  0
  5  6  1  0
  6  7  2  3
  7  8  1  0
  8  9  2  3
  9 10  1  0
  9 11  1  0
 11 12  1  0
 12 13  1  0
 11 14  2  3
  5 15  1  0
 15 16  1  0
 16 17  2  0
 17 18  1  0
 18 19  1  0
 18 20  2  0
 20 21  1  0
 21 22  1  0
 21 23  2  0
  6  2  1  0
 23 14  1  0
 23 16  1  0
  4 24  1  0
  7 25  1  0
  8 26  1  0
 10 27  1  0
 13 28  1  0
 13 29  1  0
 13 30  1  0
 14 31  1  0
 17 32  1  0
 19 33  1  0
 20 34  1  0
 22 35  1  0
M  END
>  <clase>  (21) 
Flavonol

>  <carga>  (21) 
0

>  <InChIKey>  (21) 
MMGAZLMNEKBPHW-UHFFFAOYSA-N

>  <estado_ionico>  (21) 
neutro

>  <parte_planta>  (21) 
hojas

$$$$
Luteolina
     RDKit          3D

 31 33  0  0  0  0  0  0  0  0999 V2000
   -2.0611    3.0658   -0.4855 O   0  0  0  0  0  0  0  0  0  0  0  0
   -1.4129    2.0726   -0.1753 C   0  0  0  0  0  0  0  0  0  0  0  0
   -1.7862    0.7313   -0.6460 C   0  0  0  0  0  0  0  0  0  0  0  0
   -1.0403   -0.3189   -0.2735 C   0  0  0  0  0  0  0  0  0  0  0  0
   -1.3698   -1.6912   -0.7041 C   0  0  0  0  0  0  0  0  0  0  0  0
   -1.6885   -1.9778   -2.0447 C   0  0  0  0  0  0  0  0  0  0  0  0
   -1.9892   -3.2826   -2.4453 C   0  0  0  0  0  0  0  0  0  0  0  0
   -1.9662   -4.3008   -1.5062 C   0  0  0  0  0  0  0  0  0  0  0  0
   -2.2602   -5.5747   -1.8978 O   0  0  0  0  0  0  0  0  0  0  0  0
   -1.6456   -4.0369   -0.1781 C   0  0  0  0  0  0  0  0  0  0  0  0
   -1.6405   -5.0904    0.6944 O   0  0  0  0  0  0  0  0  0  0  0  0
   -1.3437   -2.7413    0.2301 C   0  0  0  0  0  0  0  0  0  0  0  0
    0.0702   -0.2353    0.5522 O   0  0  0  0  0  0  0  0  0  0  0  0
    0.4595    1.0028    1.0017 C   0  0  0  0  0  0  0  0  0  0  0  0
    1.5954    1.0522    1.8122 C   0  0  0  0  0  0  0  0  0  0  0  0
    2.0303    2.2832    2.2977 C   0  0  0  0  0  0  0  0  0  0  0  0
    3.1345    2.3815    3.0915 O   0  0  0  0  0  0  0  0  0  0  0  0
    1.3500    3.4580    1.9881 C   0  0  0  0  0  0  0  0  0  0  0  0
    0.2190    3.4027    1.1783 C   0  0  0  0  0  0  0  0  0  0  0  0
   -0.4088    4.5878    0.9060 O   0  0  0  0  0  0  0  0  0  0  0  0
   -0.2270    2.1737    0.6831 C   0  0  0  0  0  0  0  0  0  0  0  0
   -2.6661    0.6602   -1.2725 H   0  0  0  0  0  0  0  0  0  0  0  0
   -1.6941   -1.1910   -2.7963 H   0  0  0  0  0  0  0  0  0  0  0  0
   -2.2342   -3.5013   -3.4804 H   0  0  0  0  0  0  0  0  0  0  0  0
   -2.1802   -6.1084   -1.0822 H   0  0  0  0  0  0  0  0  0  0  0  0
   -1.4082   -4.7556    1.5776 H   0  0  0  0  0  0  0  0  0  0  0  0
   -1.0951   -2.5359    1.2672 H   0  0  0  0  0  0  0  0  0  0  0  0
    2.1237    0.1349    2.0517 H   0  0  0  0  0  0  0  0  0  0  0  0
    3.5258    1.5005    3.2108 H   0  0  0  0  0  0  0  0  0  0  0  0
    1.6996    4.4116    2.3740 H   0  0  0  0  0  0  0  0  0  0  0  0
   -1.1837    4.4022    0.3291 H   0  0  0  0  0  0  0  0  0  0  0  0
  1  2  2  0
  2  3  1  0
  3  4  2  0
  4  5  1  0
  5  6  1  0
  6  7  2  0
  7  8  1  0
  8  9  1  0
  8 10  2  0
 10 11  1  0
 10 12  1  0
  4 13  1  0
 13 14  1  0
 14 15  2  0
 15 16  1  0
 16 17  1  0
 16 18  2  0
 18 19  1  0
 19 20  1  0
 19 21  2  0
 21  2  1  0
 12  5  2  0
 21 14  1  0
  3 22  1  0
  6 23  1  0
  7 24  1  0
  9 25  1  0
 11 26  1  0
 12 27  1  0
 15 28  1  0
 17 29  1  0
 18 30  1  0
 20 31  1  0
M  END
>  <clase>  (22) 
Flavona

>  <carga>  (22) 
0

>  <InChIKey>  (22) 
IQPNAANSBPBGFQ-UHFFFAOYSA-N

>  <estado_ionico>  (22) 
neutro

>  <parte_planta>  (22) 
hojas

$$$$
Vitexina
     RDKit          3D

 51 54  0  0  0  0  0  0  0  0999 V2000
   -0.1446   -1.4307    4.9654 O   0  0  0  0  0  0  0  0  0  0  0  0
   -0.2273   -1.0954    3.7886 C   0  0  0  0  0  0  0  0  0  0  0  0
   -1.4189   -0.4166    3.2667 C   0  0  0  0  0  0  0  0  0  0  0  0
   -1.4501   -0.0760    1.9715 C   0  0  0  0  0  0  0  0  0  0  0  0
   -2.6123    0.6089    1.3721 C   0  0  0  0  0  0  0  0  0  0  0  0
   -2.4102    1.6440    0.4443 C   0  0  0  0  0  0  0  0  0  0  0  0
   -3.4927    2.2942   -0.1559 C   0  0  0  0  0  0  0  0  0  0  0  0
   -4.7865    1.9063    0.1707 C   0  0  0  0  0  0  0  0  0  0  0  0
   -5.8732    2.5090   -0.3885 O   0  0  0  0  0  0  0  0  0  0  0  0
   -5.0124    0.8822    1.0811 C   0  0  0  0  0  0  0  0  0  0  0  0
   -3.9291    0.2314    1.6773 C   0  0  0  0  0  0  0  0  0  0  0  0
   -0.4130   -0.3021    1.0832 O   0  0  0  0  0  0  0  0  0  0  0  0
    0.7219   -0.9475    1.5172 C   0  0  0  0  0  0  0  0  0  0  0  0
    1.7454   -1.1832    0.5749 C   0  0  0  0  0  0  0  0  0  0  0  0
    1.6224   -0.7292   -0.8748 C   0  0  2  0  0  0  0  0  0  0  0  0
    1.3402    0.6799   -0.8613 O   0  0  0  0  0  0  0  0  0  0  0  0
    1.2792    1.2400   -2.1751 C   0  0  2  0  0  0  0  0  0  0  0  0
    1.0928    2.7566   -2.0263 C   0  0  0  0  0  0  0  0  0  0  0  0
    0.9634    3.3889   -3.2971 O   0  0  0  0  0  0  0  0  0  0  0  0
    0.1368    0.5997   -2.9763 C   0  0  1  0  0  0  0  0  0  0  0  0
    0.0696    1.0831   -4.3262 O   0  0  0  0  0  0  0  0  0  0  0  0
    0.3242   -0.9196   -3.0386 C   0  0  2  0  0  0  0  0  0  0  0  0
   -0.8469   -1.4898   -3.6513 O   0  0  0  0  0  0  0  0  0  0  0  0
    0.5541   -1.5375   -1.6519 C   0  0  1  0  0  0  0  0  0  0  0  0
    0.9847   -2.8992   -1.8239 O   0  0  0  0  0  0  0  0  0  0  0  0
    2.8932   -1.8661    1.0130 C   0  0  0  0  0  0  0  0  0  0  0  0
    3.8902   -2.1319    0.1164 O   0  0  0  0  0  0  0  0  0  0  0  0
    3.0365   -2.2874    2.3356 C   0  0  0  0  0  0  0  0  0  0  0  0
    2.0211   -2.0325    3.2490 C   0  0  0  0  0  0  0  0  0  0  0  0
    2.2240   -2.4708    4.5296 O   0  0  0  0  0  0  0  0  0  0  0  0
    0.8632   -1.3658    2.8429 C   0  0  0  0  0  0  0  0  0  0  0  0
   -2.2186   -0.2185    3.9682 H   0  0  0  0  0  0  0  0  0  0  0  0
   -1.4003    1.9548    0.1862 H   0  0  0  0  0  0  0  0  0  0  0  0
   -3.3064    3.0915   -0.8681 H   0  0  0  0  0  0  0  0  0  0  0  0
   -5.5684    3.1658   -1.0357 H   0  0  0  0  0  0  0  0  0  0  0  0
   -6.0294    0.5834    1.3202 H   0  0  0  0  0  0  0  0  0  0  0  0
   -4.1319   -0.5831    2.3688 H   0  0  0  0  0  0  0  0  0  0  0  0
    2.5899   -0.8562   -1.3759 H   0  0  0  0  0  0  0  0  0  0  0  0
    2.2305    1.0730   -2.6985 H   0  0  0  0  0  0  0  0  0  0  0  0
    1.9526    3.1870   -1.5008 H   0  0  0  0  0  0  0  0  0  0  0  0
    0.2013    2.9828   -1.4318 H   0  0  0  0  0  0  0  0  0  0  0  0
    1.0100    4.3500   -3.1359 H   0  0  0  0  0  0  0  0  0  0  0  0
   -0.8293    0.8234   -2.5069 H   0  0  0  0  0  0  0  0  0  0  0  0
    0.2671    2.0452   -4.2899 H   0  0  0  0  0  0  0  0  0  0  0  0
    1.1596   -1.1740   -3.7035 H   0  0  0  0  0  0  0  0  0  0  0  0
   -0.9621   -0.9892   -4.4829 H   0  0  0  0  0  0  0  0  0  0  0  0
   -0.4061   -1.5683   -1.1249 H   0  0  0  0  0  0  0  0  0  0  0  0
    0.9746   -3.3210   -0.9480 H   0  0  0  0  0  0  0  0  0  0  0  0
    4.6135   -2.6027    0.5657 H   0  0  0  0  0  0  0  0  0  0  0  0
    3.9263   -2.8124    2.6707 H   0  0  0  0  0  0  0  0  0  0  0  0
    1.4383   -2.2232    5.0692 H   0  0  0  0  0  0  0  0  0  0  0  0
  1  2  2  0
  2  3  1  0
  3  4  2  0
  4  5  1  0
  5  6  1  0
  6  7  2  0
  7  8  1  0
  8  9  1  0
  8 10  2  0
 10 11  1  0
  4 12  1  0
 12 13  1  0
 13 14  2  0
 14 15  1  0
 15 16  1  0
 16 17  1  0
 17 18  1  0
 18 19  1  0
 17 20  1  0
 20 21  1  0
 20 22  1  0
 22 23  1  0
 22 24  1  0
 24 25  1  0
 14 26  1  0
 26 27  1  0
 26 28  2  0
 28 29  1  0
 29 30  1  0
 29 31  2  0
 31  2  1  0
 11  5  2  0
 31 13  1  0
 24 15  1  0
  3 32  1  0
  6 33  1  0
  7 34  1  0
  9 35  1  0
 10 36  1  0
 11 37  1  0
 15 38  1  6
 17 39  1  6
 18 40  1  0
 18 41  1  0
 19 42  1  0
 20 43  1  1
 21 44  1  0
 22 45  1  6
 23 46  1  0
 24 47  1  1
 25 48  1  0
 27 49  1  0
 28 50  1  0
 30 51  1  0
M  END
>  <clase>  (23) 
Flavona

>  <carga>  (23) 
0

>  <InChIKey>  (23) 
SGEWCQFRYRRZDC-VPRICQMDSA-N

>  <estado_ionico>  (23) 
neutro

>  <parte_planta>  (23) 
hojas

$$$$
Catequina
     RDKit          3D

 35 37  0  0  0  0  0  0  0  0999 V2000
    0.2025    1.9340   -1.4347 O   0  0  0  0  0  0  0  0  0  0  0  0
    0.3629    0.7335   -0.6709 C   0  0  1  0  0  0  0  0  0  0  0  0
    1.3735    1.0161    0.4384 C   0  0  0  0  0  0  0  0  0  0  0  0
    1.3626   -0.0413    1.5033 C   0  0  0  0  0  0  0  0  0  0  0  0
    2.3893   -0.1495    2.4522 C   0  0  0  0  0  0  0  0  0  0  0  0
    3.4536    0.7074    2.4971 O   0  0  0  0  0  0  0  0  0  0  0  0
    2.3784   -1.1565    3.4156 C   0  0  0  0  0  0  0  0  0  0  0  0
    1.3280   -2.0625    3.4481 C   0  0  0  0  0  0  0  0  0  0  0  0
    1.3527   -3.0375    4.4011 O   0  0  0  0  0  0  0  0  0  0  0  0
    0.2843   -1.9671    2.5368 C   0  0  0  0  0  0  0  0  0  0  0  0
    0.2963   -0.9492    1.5795 C   0  0  0  0  0  0  0  0  0  0  0  0
   -0.7775   -0.9398    0.7296 O   0  0  0  0  0  0  0  0  0  0  0  0
   -0.9538    0.2691   -0.0222 C   0  0  2  0  0  0  0  0  0  0  0  0
   -2.0251    0.0012   -1.0701 C   0  0  0  0  0  0  0  0  0  0  0  0
   -3.1052    0.8920   -1.2209 C   0  0  0  0  0  0  0  0  0  0  0  0
   -4.0858    0.6751   -2.1949 C   0  0  0  0  0  0  0  0  0  0  0  0
   -3.9836   -0.4344   -3.0236 C   0  0  0  0  0  0  0  0  0  0  0  0
   -4.9081   -0.6996   -3.9954 O   0  0  0  0  0  0  0  0  0  0  0  0
   -2.9185   -1.3192   -2.8848 C   0  0  0  0  0  0  0  0  0  0  0  0
   -2.8225   -2.4050   -3.7071 O   0  0  0  0  0  0  0  0  0  0  0  0
   -1.9428   -1.1147   -1.9192 C   0  0  0  0  0  0  0  0  0  0  0  0
   -0.3517    1.7080   -2.2050 H   0  0  0  0  0  0  0  0  0  0  0  0
    0.7673   -0.0446   -1.3315 H   0  0  0  0  0  0  0  0  0  0  0  0
    1.1602    1.9882    0.9020 H   0  0  0  0  0  0  0  0  0  0  0  0
    2.3680    1.0953   -0.0179 H   0  0  0  0  0  0  0  0  0  0  0  0
    3.3120    1.4456    1.8851 H   0  0  0  0  0  0  0  0  0  0  0  0
    3.1866   -1.2320    4.1370 H   0  0  0  0  0  0  0  0  0  0  0  0
    0.5700   -3.6019    4.2895 H   0  0  0  0  0  0  0  0  0  0  0  0
   -0.5460   -2.6660    2.5572 H   0  0  0  0  0  0  0  0  0  0  0  0
   -1.3313    1.0422    0.6622 H   0  0  0  0  0  0  0  0  0  0  0  0
   -3.1884    1.7657   -0.5761 H   0  0  0  0  0  0  0  0  0  0  0  0
   -4.9087    1.3767   -2.2873 H   0  0  0  0  0  0  0  0  0  0  0  0
   -5.5980   -0.0152   -3.9525 H   0  0  0  0  0  0  0  0  0  0  0  0
   -3.6118   -2.3479   -4.2817 H   0  0  0  0  0  0  0  0  0  0  0  0
   -1.1277   -1.8283   -1.8269 H   0  0  0  0  0  0  0  0  0  0  0  0
  1  2  1  0
  2  3  1  0
  3  4  1  0
  4  5  2  0
  5  6  1  0
  5  7  1  0
  7  8  2  0
  8  9  1  0
  8 10  1  0
 10 11  2  0
 11 12  1  0
 12 13  1  0
 13 14  1  0
 14 15  1  0
 15 16  2  0
 16 17  1  0
 17 18  1  0
 17 19  2  0
 19 20  1  0
 19 21  1  0
 13  2  1  0
 21 14  2  0
 11  4  1  0
  1 22  1  0
  2 23  1  6
  3 24  1  0
  3 25  1  0
  6 26  1  0
  7 27  1  0
  9 28  1  0
 10 29  1  0
 13 30  1  1
 15 31  1  0
 16 32  1  0
 18 33  1  0
 20 34  1  0
 21 35  1  0
M  END
>  <clase>  (24) 
Flavan-3-ol

>  <carga>  (24) 
0

>  <InChIKey>  (24) 
PFTAWBLQPZVEMU-DZGCQCFKSA-N

>  <estado_ionico>  (24) 
neutro

>  <parte_planta>  (24) 
hojas|tallo

$$$$
Epicatequina
     RDKit          3D

 35 37  0  0  0  0  0  0  0  0999 V2000
    1.2572    0.3299   -1.3051 O   0  0  0  0  0  0  0  0  0  0  0  0
    0.0197    0.9634   -0.9439 C   0  0  2  0  0  0  0  0  0  0  0  0
    0.3035    1.9711    0.1725 C   0  0  0  0  0  0  0  0  0  0  0  0
    0.3797    1.3176    1.5288 C   0  0  0  0  0  0  0  0  0  0  0  0
    0.8256    2.0088    2.6646 C   0  0  0  0  0  0  0  0  0  0  0  0
    1.2139    3.3193    2.6373 O   0  0  0  0  0  0  0  0  0  0  0  0
    0.8978    1.3859    3.9109 C   0  0  0  0  0  0  0  0  0  0  0  0
    0.5241    0.0538    4.0300 C   0  0  0  0  0  0  0  0  0  0  0  0
    0.5870   -0.5984    5.2258 O   0  0  0  0  0  0  0  0  0  0  0  0
    0.0689   -0.6540    2.9267 C   0  0  0  0  0  0  0  0  0  0  0  0
   -0.0214   -0.0180    1.6881 C   0  0  0  0  0  0  0  0  0  0  0  0
   -0.4832   -0.7952    0.6572 O   0  0  0  0  0  0  0  0  0  0  0  0
   -1.0301   -0.0487   -0.4470 C   0  0  2  0  0  0  0  0  0  0  0  0
   -1.5553   -1.0609   -1.4562 C   0  0  0  0  0  0  0  0  0  0  0  0
   -2.5282   -1.9920   -1.0282 C   0  0  0  0  0  0  0  0  0  0  0  0
   -3.0698   -2.9395   -1.9033 C   0  0  0  0  0  0  0  0  0  0  0  0
   -2.6428   -2.9582   -3.2223 C   0  0  0  0  0  0  0  0  0  0  0  0
   -3.1316   -3.8564   -4.1297 O   0  0  0  0  0  0  0  0  0  0  0  0
   -1.6884   -2.0463   -3.6611 C   0  0  0  0  0  0  0  0  0  0  0  0
   -1.2758   -2.0694   -4.9635 O   0  0  0  0  0  0  0  0  0  0  0  0
   -1.1421   -1.1044   -2.7961 C   0  0  0  0  0  0  0  0  0  0  0  0
    1.3891   -0.4118   -0.6826 H   0  0  0  0  0  0  0  0  0  0  0  0
   -0.3314    1.5059   -1.8286 H   0  0  0  0  0  0  0  0  0  0  0  0
    1.2480    2.4851   -0.0410 H   0  0  0  0  0  0  0  0  0  0  0  0
   -0.5037    2.7131    0.2035 H   0  0  0  0  0  0  0  0  0  0  0  0
    1.2045    3.6517    1.7267 H   0  0  0  0  0  0  0  0  0  0  0  0
    1.2500    1.9524    4.7669 H   0  0  0  0  0  0  0  0  0  0  0  0
    0.9396    0.0130    5.8938 H   0  0  0  0  0  0  0  0  0  0  0  0
   -0.2232   -1.6949    3.0317 H   0  0  0  0  0  0  0  0  0  0  0  0
   -1.9131    0.5055   -0.0931 H   0  0  0  0  0  0  0  0  0  0  0  0
   -2.8632   -1.9829    0.0087 H   0  0  0  0  0  0  0  0  0  0  0  0
   -3.8110   -3.6413   -1.5357 H   0  0  0  0  0  0  0  0  0  0  0  0
   -3.7639   -4.4347   -3.6695 H   0  0  0  0  0  0  0  0  0  0  0  0
   -1.7764   -2.8075   -5.3645 H   0  0  0  0  0  0  0  0  0  0  0  0
   -0.3921   -0.4242   -3.1899 H   0  0  0  0  0  0  0  0  0  0  0  0
  1  2  1  0
  2  3  1  0
  3  4  1  0
  4  5  2  0
  5  6  1  0
  5  7  1  0
  7  8  2  0
  8  9  1  0
  8 10  1  0
 10 11  2  0
 11 12  1  0
 12 13  1  0
 13 14  1  0
 14 15  1  0
 15 16  2  0
 16 17  1  0
 17 18  1  0
 17 19  2  0
 19 20  1  0
 19 21  1  0
 13  2  1  0
 21 14  2  0
 11  4  1  0
  1 22  1  0
  2 23  1  6
  3 24  1  0
  3 25  1  0
  6 26  1  0
  7 27  1  0
  9 28  1  0
 10 29  1  0
 13 30  1  1
 15 31  1  0
 16 32  1  0
 18 33  1  0
 20 34  1  0
 21 35  1  0
M  END
>  <clase>  (25) 
Flavan-3-ol

>  <carga>  (25) 
0

>  <InChIKey>  (25) 
PFTAWBLQPZVEMU-UKRRQHHQSA-N

>  <estado_ionico>  (25) 
neutro

>  <parte_planta>  (25) 
hojas|tallo

$$$$
Ácido Cafeico
     RDKit          3D

 21 21  0  0  0  0  0  0  0  0999 V2000
    2.2572    0.4883   -1.5587 O   0  0  0  0  0  0  0  0  0  0  0  0
    2.0761    1.2654   -0.4803 C   0  0  0  0  0  0  0  0  0  0  0  0
    2.9262    2.0561   -0.1128 O   0  0  0  0  0  0  0  0  0  0  0  0
    0.7845    1.0672    0.1909 C   0  0  0  0  0  0  0  0  0  0  0  0
   -0.1474    0.1992   -0.2326 C   0  0  0  0  0  0  0  0  0  0  0  0
   -1.4359   -0.0086    0.4435 C   0  0  0  0  0  0  0  0  0  0  0  0
   -2.1719    1.0568    0.9899 C   0  0  0  0  0  0  0  0  0  0  0  0
   -3.4075    0.8303    1.6028 C   0  0  0  0  0  0  0  0  0  0  0  0
   -3.9087   -0.4601    1.6584 C   0  0  0  0  0  0  0  0  0  0  0  0
   -5.1155   -0.6818    2.2564 O   0  0  0  0  0  0  0  0  0  0  0  0
   -3.1985   -1.5230    1.1086 C   0  0  0  0  0  0  0  0  0  0  0  0
   -3.7551   -2.7699    1.1945 O   0  0  0  0  0  0  0  0  0  0  0  0
   -1.9679   -1.3068    0.4955 C   0  0  0  0  0  0  0  0  0  0  0  0
    3.1464    0.7438   -1.8810 H   0  0  0  0  0  0  0  0  0  0  0  0
    0.6467    1.6795    1.0751 H   0  0  0  0  0  0  0  0  0  0  0  0
    0.0309   -0.4185   -1.1103 H   0  0  0  0  0  0  0  0  0  0  0  0
   -1.7999    2.0773    0.9354 H   0  0  0  0  0  0  0  0  0  0  0  0
   -3.9739    1.6541    2.0264 H   0  0  0  0  0  0  0  0  0  0  0  0
   -5.2572   -1.6457    2.1724 H   0  0  0  0  0  0  0  0  0  0  0  0
   -3.1473   -3.4038    0.7762 H   0  0  0  0  0  0  0  0  0  0  0  0
   -1.4142   -2.1361    0.0656 H   0  0  0  0  0  0  0  0  0  0  0  0
  1  2  1  0
  2  3  2  0
  2  4  1  0
  4  5  2  0
  5  6  1  0
  6  7  1  0
  7  8  2  0
  8  9  1  0
  9 10  1  0
  9 11  2  0
 11 12  1  0
 11 13  1  0
 13  6  2  0
  1 14  1  0
  4 15  1  0
  5 16  1  0
  7 17  1  0
  8 18  1  0
 10 19  1  0
 12 20  1  0
 13 21  1  0
M  END
>  <clase>  (26) 
Ác. Hidroxicinámico

>  <carga>  (26) 
0

>  <InChIKey>  (26) 
QAIPRVGONGVQAS-DUXPYHPUSA-N

>  <estado_ionico>  (26) 
neutro

>  <parte_planta>  (26) 
hojas|tallo

$$$$
Ácido Ferúlico
     RDKit          3D

 24 24  0  0  0  0  0  0  0  0999 V2000
    1.6935    2.5673   -2.2919 O   0  0  0  0  0  0  0  0  0  0  0  0
    1.7067    2.9648   -1.0108 C   0  0  0  0  0  0  0  0  0  0  0  0
    2.2935    3.9731   -0.6609 O   0  0  0  0  0  0  0  0  0  0  0  0
    0.9611    2.0838   -0.1021 C   0  0  0  0  0  0  0  0  0  0  0  0
    0.3273    0.9700   -0.5009 C   0  0  0  0  0  0  0  0  0  0  0  0
   -0.4287    0.0931    0.4050 C   0  0  0  0  0  0  0  0  0  0  0  0
    0.0269   -0.2103    1.6966 C   0  0  0  0  0  0  0  0  0  0  0  0
   -0.7021   -1.0683    2.5199 C   0  0  0  0  0  0  0  0  0  0  0  0
   -1.8793   -1.6283    2.0442 C   0  0  0  0  0  0  0  0  0  0  0  0
   -2.5758   -2.4671    2.8711 O   0  0  0  0  0  0  0  0  0  0  0  0
   -2.3516   -1.3568    0.7560 C   0  0  0  0  0  0  0  0  0  0  0  0
   -3.5243   -1.9870    0.4258 O   0  0  0  0  0  0  0  0  0  0  0  0
   -4.0432   -1.7292   -0.8739 C   0  0  0  0  0  0  0  0  0  0  0  0
   -1.6161   -0.4977   -0.0631 C   0  0  0  0  0  0  0  0  0  0  0  0
    2.2272    3.2486   -2.7509 H   0  0  0  0  0  0  0  0  0  0  0  0
    0.9541    2.4159    0.9300 H   0  0  0  0  0  0  0  0  0  0  0  0
    0.3322    0.6757   -1.5484 H   0  0  0  0  0  0  0  0  0  0  0  0
    0.9579    0.2061    2.0734 H   0  0  0  0  0  0  0  0  0  0  0  0
   -0.3527   -1.3031    3.5208 H   0  0  0  0  0  0  0  0  0  0  0  0
   -3.3537   -2.7456    2.3497 H   0  0  0  0  0  0  0  0  0  0  0  0
   -4.2827   -0.6682   -0.9999 H   0  0  0  0  0  0  0  0  0  0  0  0
   -3.3527   -2.0753   -1.6500 H   0  0  0  0  0  0  0  0  0  0  0  0
   -4.9737   -2.2952   -0.9798 H   0  0  0  0  0  0  0  0  0  0  0  0
   -1.9500   -0.2640   -1.0691 H   0  0  0  0  0  0  0  0  0  0  0  0
  1  2  1  0
  2  3  2  0
  2  4  1  0
  4  5  2  0
  5  6  1  0
  6  7  1  0
  7  8  2  0
  8  9  1  0
  9 10  1  0
  9 11  2  0
 11 12  1  0
 12 13  1  0
 11 14  1  0
 14  6  2  0
  1 15  1  0
  4 16  1  0
  5 17  1  0
  7 18  1  0
  8 19  1  0
 10 20  1  0
 13 21  1  0
 13 22  1  0
 13 23  1  0
 14 24  1  0
M  END
>  <clase>  (27) 
Ác. Hidroxicinámico

>  <carga>  (27) 
0

>  <InChIKey>  (27) 
KSEBMYQBYZTDHS-HWKANZROSA-N

>  <estado_ionico>  (27) 
neutro

>  <parte_planta>  (27) 
hojas

$$$$
Ácido Clorogénico (5-cafeoilquínico)
     RDKit          3D

 43 44  0  0  0  0  0  0  0  0999 V2000
    0.9316   -4.4073    2.8352 O   0  0  0  0  0  0  0  0  0  0  0  0
    0.0979   -3.2470    2.9230 C   0  0  2  0  0  0  0  0  0  0  0  0
   -1.3577   -3.6940    2.7686 C   0  0  0  0  0  0  0  0  0  0  0  0
   -2.3149   -2.5030    2.6962 C   0  0  2  0  0  0  0  0  0  0  0  0
   -2.2825   -1.8184    3.9552 O   0  0  0  0  0  0  0  0  0  0  0  0
   -3.7304   -3.0230    2.4039 C   0  0  0  0  0  0  0  0  0  0  0  0
   -4.2199   -3.2801    1.3179 O   0  0  0  0  0  0  0  0  0  0  0  0
   -4.4383   -3.2183    3.5427 O   0  0  0  0  0  0  0  0  0  0  0  0
   -1.8976   -1.4974    1.6196 C   0  0  0  0  0  0  0  0  0  0  0  0
   -0.4455   -1.0415    1.8018 C   0  0  2  0  0  0  0  0  0  0  0  0
   -0.1248   -0.1890    0.6780 O   0  0  0  0  0  0  0  0  0  0  0  0
    0.9157    0.6588    0.8613 C   0  0  0  0  0  0  0  0  0  0  0  0
    1.6160    0.7287    1.8590 O   0  0  0  0  0  0  0  0  0  0  0  0
    1.1454    1.5146   -0.3200 C   0  0  0  0  0  0  0  0  0  0  0  0
    0.3726    1.5154   -1.4175 C   0  0  0  0  0  0  0  0  0  0  0  0
    0.6220    2.3702   -2.5873 C   0  0  0  0  0  0  0  0  0  0  0  0
    0.3784    1.8444   -3.8675 C   0  0  0  0  0  0  0  0  0  0  0  0
    0.5756    2.6245   -5.0099 C   0  0  0  0  0  0  0  0  0  0  0  0
    1.0046    3.9340   -4.8678 C   0  0  0  0  0  0  0  0  0  0  0  0
    1.1961    4.6973   -5.9829 O   0  0  0  0  0  0  0  0  0  0  0  0
    1.2340    4.4744   -3.6060 C   0  0  0  0  0  0  0  0  0  0  0  0
    1.6453    5.7777   -3.5405 O   0  0  0  0  0  0  0  0  0  0  0  0
    1.0415    3.7045   -2.4623 C   0  0  0  0  0  0  0  0  0  0  0  0
    0.5085   -2.2465    1.8335 C   0  0  2  0  0  0  0  0  0  0  0  0
    0.4766   -2.9395    0.5683 O   0  0  0  0  0  0  0  0  0  0  0  0
    1.0321   -4.5815    1.8770 H   0  0  0  0  0  0  0  0  0  0  0  0
    0.2510   -2.8044    3.9135 H   0  0  0  0  0  0  0  0  0  0  0  0
   -1.4634   -4.3291    1.8786 H   0  0  0  0  0  0  0  0  0  0  0  0
   -1.6137   -4.3406    3.6187 H   0  0  0  0  0  0  0  0  0  0  0  0
   -2.9023   -2.3032    4.5394 H   0  0  0  0  0  0  0  0  0  0  0  0
   -5.3056   -3.5524    3.2255 H   0  0  0  0  0  0  0  0  0  0  0  0
   -2.0319   -1.9192    0.6146 H   0  0  0  0  0  0  0  0  0  0  0  0
   -2.5471   -0.6122    1.6535 H   0  0  0  0  0  0  0  0  0  0  0  0
   -0.3670   -0.4673    2.7342 H   0  0  0  0  0  0  0  0  0  0  0  0
    2.0162    2.1550   -0.2284 H   0  0  0  0  0  0  0  0  0  0  0  0
   -0.4853    0.8514   -1.5000 H   0  0  0  0  0  0  0  0  0  0  0  0
    0.0397    0.8174   -3.9892 H   0  0  0  0  0  0  0  0  0  0  0  0
    0.3941    2.2141   -5.9986 H   0  0  0  0  0  0  0  0  0  0  0  0
    1.4883    5.5652   -5.6397 H   0  0  0  0  0  0  0  0  0  0  0  0
    1.7554    6.0179   -2.6044 H   0  0  0  0  0  0  0  0  0  0  0  0
    1.2025    4.1378   -1.4804 H   0  0  0  0  0  0  0  0  0  0  0  0
    1.5487   -1.9363    1.9770 H   0  0  0  0  0  0  0  0  0  0  0  0
    0.6372   -2.2637   -0.1170 H   0  0  0  0  0  0  0  0  0  0  0  0
  1  2  1  0
  2  3  1  0
  3  4  1  0
  4  5  1  1
  4  6  1  0
  6  7  2  0
  6  8  1  0
  4  9  1  0
  9 10  1  0
 10 11  1  0
 11 12  1  0
 12 13  2  0
 12 14  1  0
 14 15  2  0
 15 16  1  0
 16 17  1  0
 17 18  2  0
 18 19  1  0
 19 20  1  0
 19 21  2  0
 21 22  1  0
 21 23  1  0
 10 24  1  0
 24 25  1  0
 24  2  1  0
 23 16  2  0
  1 26  1  0
  2 27  1  1
  3 28  1  0
  3 29  1  0
  5 30  1  0
  8 31  1  0
  9 32  1  0
  9 33  1  0
 10 34  1  1
 14 35  1  0
 15 36  1  0
 17 37  1  0
 18 38  1  0
 20 39  1  0
 22 40  1  0
 23 41  1  0
 24 42  1  1
 25 43  1  0
M  END
>  <clase>  (28) 
Ác. Hidroxicinámico

>  <carga>  (28) 
0

>  <InChIKey>  (28) 
CWVRJTMFETXNAD-QEPAVKMUSA-N

>  <estado_ionico>  (28) 
neutro

>  <parte_planta>  (28) 
fruto|hojas|tallo

$$$$
3-Cafeoilquínico
     RDKit          3D

 43 44  0  0  0  0  0  0  0  0999 V2000
   -3.2132   -0.2248    3.4141 O   0  0  0  0  0  0  0  0  0  0  0  0
   -2.0784    0.2261    2.6755 C   0  0  2  0  0  0  0  0  0  0  0  0
   -1.9592    1.7505    2.7256 C   0  0  0  0  0  0  0  0  0  0  0  0
   -3.1792    2.4573    2.1092 C   0  0  2  0  0  0  0  0  0  0  0  0
   -2.6678    3.6084    1.4115 O   0  0  0  0  0  0  0  0  0  0  0  0
   -4.1634    2.9603    3.1764 C   0  0  0  0  0  0  0  0  0  0  0  0
   -4.7742    4.0185    3.1171 O   0  0  0  0  0  0  0  0  0  0  0  0
   -4.3518    2.1268    4.2184 O   0  0  0  0  0  0  0  0  0  0  0  0
   -3.9372    1.5909    1.0971 C   0  0  0  0  0  0  0  0  0  0  0  0
   -2.9807    0.6967    0.3126 C   0  0  2  0  0  0  0  0  0  0  0  0
   -3.7575   -0.0269   -0.6489 O   0  0  0  0  0  0  0  0  0  0  0  0
   -2.1866   -0.2787    1.2209 C   0  0  1  0  0  0  0  0  0  0  0  0
   -0.8296   -0.4160    0.7193 O   0  0  0  0  0  0  0  0  0  0  0  0
   -0.6870   -1.1120   -0.4345 C   0  0  0  0  0  0  0  0  0  0  0  0
   -1.5896   -1.5796   -1.1087 O   0  0  0  0  0  0  0  0  0  0  0  0
    0.7517   -1.1867   -0.7518 C   0  0  0  0  0  0  0  0  0  0  0  0
    1.1605   -1.8351   -1.8526 C   0  0  0  0  0  0  0  0  0  0  0  0
    2.5699   -1.9731   -2.2423 C   0  0  0  0  0  0  0  0  0  0  0  0
    3.4919   -0.9209   -2.1025 C   0  0  0  0  0  0  0  0  0  0  0  0
    4.8230   -1.0722   -2.5096 C   0  0  0  0  0  0  0  0  0  0  0  0
    5.2269   -2.2779   -3.0666 C   0  0  0  0  0  0  0  0  0  0  0  0
    6.5113   -2.4886   -3.4846 O   0  0  0  0  0  0  0  0  0  0  0  0
    4.3161   -3.3187   -3.2215 C   0  0  0  0  0  0  0  0  0  0  0  0
    4.7198   -4.4998   -3.7761 O   0  0  0  0  0  0  0  0  0  0  0  0
    2.9937   -3.1760   -2.8217 C   0  0  0  0  0  0  0  0  0  0  0  0
   -3.3581    0.3705    4.1750 H   0  0  0  0  0  0  0  0  0  0  0  0
   -1.1948   -0.2114    3.1547 H   0  0  0  0  0  0  0  0  0  0  0  0
   -1.8221    2.0734    3.7654 H   0  0  0  0  0  0  0  0  0  0  0  0
   -1.0419    2.0485    2.2000 H   0  0  0  0  0  0  0  0  0  0  0  0
   -3.4248    4.2133    1.2725 H   0  0  0  0  0  0  0  0  0  0  0  0
   -5.0327    2.5854    4.7591 H   0  0  0  0  0  0  0  0  0  0  0  0
   -4.4967    2.2220    0.3934 H   0  0  0  0  0  0  0  0  0  0  0  0
   -4.6961    0.9675    1.5883 H   0  0  0  0  0  0  0  0  0  0  0  0
   -2.2891    1.3256   -0.2616 H   0  0  0  0  0  0  0  0  0  0  0  0
   -3.1636   -0.6865   -1.0700 H   0  0  0  0  0  0  0  0  0  0  0  0
   -2.6541   -1.2726    1.2222 H   0  0  0  0  0  0  0  0  0  0  0  0
    1.4367   -0.7157   -0.0582 H   0  0  0  0  0  0  0  0  0  0  0  0
    0.4378   -2.3222   -2.5064 H   0  0  0  0  0  0  0  0  0  0  0  0
    3.1803    0.0352   -1.6876 H   0  0  0  0  0  0  0  0  0  0  0  0
    5.5137   -0.2440   -2.3895 H   0  0  0  0  0  0  0  0  0  0  0  0
    7.0209   -1.6763   -3.3215 H   0  0  0  0  0  0  0  0  0  0  0  0
    5.6676   -4.3660   -3.9768 H   0  0  0  0  0  0  0  0  0  0  0  0
    2.3068   -4.0069   -2.9587 H   0  0  0  0  0  0  0  0  0  0  0  0
  1  2  1  0
  2  3  1  0
  3  4  1  0
  4  5  1  6
  4  6  1  0
  6  7  2  0
  6  8  1  0
  4  9  1  0
  9 10  1  0
 10 11  1  0
 10 12  1  0
 12 13  1  0
 13 14  1  0
 14 15  2  0
 14 16  1  0
 16 17  2  0
 17 18  1  0
 18 19  1  0
 19 20  2  0
 20 21  1  0
 21 22  1  0
 21 23  2  0
 23 24  1  0
 23 25  1  0
 12  2  1  0
 25 18  2  0
  1 26  1  0
  2 27  1  1
  3 28  1  0
  3 29  1  0
  5 30  1  0
  8 31  1  0
  9 32  1  0
  9 33  1  0
 10 34  1  6
 11 35  1  0
 12 36  1  1
 16 37  1  0
 17 38  1  0
 19 39  1  0
 20 40  1  0
 22 41  1  0
 24 42  1  0
 25 43  1  0
M  END
>  <clase>  (29) 
Ác. Hidroxicinámico

>  <carga>  (29) 
0

>  <InChIKey>  (29) 
GYFFKZTYYAFCTR-DHLOTTMOSA-N

>  <estado_ionico>  (29) 
neutro

>  <parte_planta>  (29) 
fruto

$$$$
4-Cafeoilquínico
     RDKit          3D

 43 44  0  0  0  0  0  0  0  0999 V2000
   -0.4045    0.7398    3.5045 O   0  0  0  0  0  0  0  0  0  0  0  0
   -1.1320   -0.1427    2.6346 C   0  0  1  0  0  0  0  0  0  0  0  0
   -2.3597   -0.6273    3.4155 C   0  0  0  0  0  0  0  0  0  0  0  0
   -3.6059    0.2262    3.1398 C   0  0  2  0  0  0  0  0  0  0  0  0
   -3.3345    1.5917    3.4851 O   0  0  0  0  0  0  0  0  0  0  0  0
   -4.7541   -0.3104    4.0096 C   0  0  0  0  0  0  0  0  0  0  0  0
   -5.5695   -1.1691    3.7164 O   0  0  0  0  0  0  0  0  0  0  0  0
   -4.7718    0.2539    5.2403 O   0  0  0  0  0  0  0  0  0  0  0  0
   -3.9983    0.2238    1.6503 C   0  0  0  0  0  0  0  0  0  0  0  0
   -2.7996    0.0012    0.7222 C   0  0  2  0  0  0  0  0  0  0  0  0
   -2.6546   -1.4095    0.4960 O   0  0  0  0  0  0  0  0  0  0  0  0
   -1.4933    0.5656    1.3066 C   0  0  2  0  0  0  0  0  0  0  0  0
   -0.4605    0.3591    0.3058 O   0  0  0  0  0  0  0  0  0  0  0  0
    0.7186    0.9881    0.4922 C   0  0  0  0  0  0  0  0  0  0  0  0
    1.0064    1.6974    1.4455 O   0  0  0  0  0  0  0  0  0  0  0  0
    1.6703    0.7242   -0.6053 C   0  0  0  0  0  0  0  0  0  0  0  0
    1.4110   -0.0739   -1.6530 C   0  0  0  0  0  0  0  0  0  0  0  0
    2.3686   -0.3429   -2.7355 C   0  0  0  0  0  0  0  0  0  0  0  0
    3.2358    0.6446   -3.2355 C   0  0  0  0  0  0  0  0  0  0  0  0
    4.1161    0.3640   -4.2876 C   0  0  0  0  0  0  0  0  0  0  0  0
    4.1187   -0.9065   -4.8469 C   0  0  0  0  0  0  0  0  0  0  0  0
    4.9528   -1.2433   -5.8762 O   0  0  0  0  0  0  0  0  0  0  0  0
    3.2521   -1.8844   -4.3685 C   0  0  0  0  0  0  0  0  0  0  0  0
    3.2551   -3.1301   -4.9289 O   0  0  0  0  0  0  0  0  0  0  0  0
    2.3761   -1.6139   -3.3251 C   0  0  0  0  0  0  0  0  0  0  0  0
    0.2713    1.2017    2.9624 H   0  0  0  0  0  0  0  0  0  0  0  0
   -0.4662   -0.9935    2.4486 H   0  0  0  0  0  0  0  0  0  0  0  0
   -2.5752   -1.6694    3.1454 H   0  0  0  0  0  0  0  0  0  0  0  0
   -2.1346   -0.6257    4.4903 H   0  0  0  0  0  0  0  0  0  0  0  0
   -3.1278    1.5957    4.4411 H   0  0  0  0  0  0  0  0  0  0  0  0
   -5.5363   -0.1692    5.6853 H   0  0  0  0  0  0  0  0  0  0  0  0
   -4.7539   -0.5428    1.4419 H   0  0  0  0  0  0  0  0  0  0  0  0
   -4.4528    1.1917    1.4012 H   0  0  0  0  0  0  0  0  0  0  0  0
   -2.9911    0.4489   -0.2601 H   0  0  0  0  0  0  0  0  0  0  0  0
   -3.4086   -1.6988   -0.0486 H   0  0  0  0  0  0  0  0  0  0  0  0
   -1.6023    1.6484    1.4517 H   0  0  0  0  0  0  0  0  0  0  0  0
    2.6243    1.2252   -0.4845 H   0  0  0  0  0  0  0  0  0  0  0  0
    0.4583   -0.5942   -1.7335 H   0  0  0  0  0  0  0  0  0  0  0  0
    3.2281    1.6497   -2.8196 H   0  0  0  0  0  0  0  0  0  0  0  0
    4.7759    1.1448   -4.6517 H   0  0  0  0  0  0  0  0  0  0  0  0
    5.4948   -0.4656   -6.0944 H   0  0  0  0  0  0  0  0  0  0  0  0
    3.9399   -3.0840   -5.6257 H   0  0  0  0  0  0  0  0  0  0  0  0
    1.7123   -2.4001   -2.9753 H   0  0  0  0  0  0  0  0  0  0  0  0
  1  2  1  0
  2  3  1  0
  3  4  1  0
  4  5  1  1
  4  6  1  0
  6  7  2  0
  6  8  1  0
  4  9  1  0
  9 10  1  0
 10 11  1  0
 10 12  1  0
 12 13  1  0
 13 14  1  0
 14 15  2  0
 14 16  1  0
 16 17  2  0
 17 18  1  0
 18 19  1  0
 19 20  2  0
 20 21  1  0
 21 22  1  0
 21 23  2  0
 23 24  1  0
 23 25  1  0
 12  2  1  0
 25 18  2  0
  1 26  1  0
  2 27  1  6
  3 28  1  0
  3 29  1  0
  5 30  1  0
  8 31  1  0
  9 32  1  0
  9 33  1  0
 10 34  1  6
 11 35  1  0
 12 36  1  1
 16 37  1  0
 17 38  1  0
 19 39  1  0
 20 40  1  0
 22 41  1  0
 24 42  1  0
 25 43  1  0
M  END
>  <clase>  (30) 
Ác. Hidroxicinámico

>  <carga>  (30) 
0

>  <InChIKey>  (30) 
GYFFKZTYYAFCTR-ZZVAFGPTSA-N

>  <estado_ionico>  (30) 
neutro

>  <parte_planta>  (30) 
fruto

$$$$
3,5-Dicafeoilquínico
     RDKit          3D

 61 63  0  0  0  0  0  0  0  0999 V2000
   -1.3535    1.2701    0.6540 O   0  0  0  0  0  0  0  0  0  0  0  0
    0.0510    1.2947    0.3506 C   0  0  2  0  0  0  0  0  0  0  0  0
    0.8507    1.4447    1.6535 C   0  0  1  0  0  0  0  0  0  0  0  0
    0.6208    0.2589    2.4499 O   0  0  0  0  0  0  0  0  0  0  0  0
    0.8050    0.3979    3.7839 C   0  0  0  0  0  0  0  0  0  0  0  0
    1.2131    1.3993    4.3529 O   0  0  0  0  0  0  0  0  0  0  0  0
    0.4728   -0.8405    4.5172 C   0  0  0  0  0  0  0  0  0  0  0  0
   -0.0720   -1.9287    3.9509 C   0  0  0  0  0  0  0  0  0  0  0  0
   -0.4160   -3.1430    4.7023 C   0  0  0  0  0  0  0  0  0  0  0  0
    0.4458   -3.6855    5.6707 C   0  0  0  0  0  0  0  0  0  0  0  0
    0.1054   -4.8583    6.3503 C   0  0  0  0  0  0  0  0  0  0  0  0
   -1.0919   -5.4892    6.0530 C   0  0  0  0  0  0  0  0  0  0  0  0
   -1.4247   -6.6347    6.7164 O   0  0  0  0  0  0  0  0  0  0  0  0
   -1.9494   -4.9698    5.0876 C   0  0  0  0  0  0  0  0  0  0  0  0
   -3.1136   -5.6455    4.8433 O   0  0  0  0  0  0  0  0  0  0  0  0
   -1.6178   -3.8039    4.4041 C   0  0  0  0  0  0  0  0  0  0  0  0
    2.3490    1.5629    1.3657 C   0  0  0  0  0  0  0  0  0  0  0  0
    2.6969    2.6575    0.3575 C   0  0  2  0  0  0  0  0  0  0  0  0
    4.0505    2.4080   -0.0757 O   0  0  0  0  0  0  0  0  0  0  0  0
    2.6803    4.0451    1.0183 C   0  0  0  0  0  0  0  0  0  0  0  0
    3.6793    4.6961    1.2898 O   0  0  0  0  0  0  0  0  0  0  0  0
    1.4579    4.5026    1.3289 O   0  0  0  0  0  0  0  0  0  0  0  0
    1.8288    2.5933   -0.9004 C   0  0  0  0  0  0  0  0  0  0  0  0
    0.3325    2.4510   -0.6198 C   0  0  1  0  0  0  0  0  0  0  0  0
   -0.3621    2.1403   -1.8538 O   0  0  0  0  0  0  0  0  0  0  0  0
   -0.6419    3.1955   -2.6581 C   0  0  0  0  0  0  0  0  0  0  0  0
   -0.3696    4.3636   -2.4294 O   0  0  0  0  0  0  0  0  0  0  0  0
   -1.3475    2.7778   -3.8864 C   0  0  0  0  0  0  0  0  0  0  0  0
   -1.5926    1.5016   -4.2232 C   0  0  0  0  0  0  0  0  0  0  0  0
   -2.2850    1.1085   -5.4584 C   0  0  0  0  0  0  0  0  0  0  0  0
   -1.8583   -0.0478   -6.1348 C   0  0  0  0  0  0  0  0  0  0  0  0
   -2.5005   -0.4783   -7.3018 C   0  0  0  0  0  0  0  0  0  0  0  0
   -3.5812    0.2467   -7.7845 C   0  0  0  0  0  0  0  0  0  0  0  0
   -4.2518   -0.1200   -8.9177 O   0  0  0  0  0  0  0  0  0  0  0  0
   -4.0196    1.3831   -7.1113 C   0  0  0  0  0  0  0  0  0  0  0  0
   -5.0903    2.0856   -7.5869 O   0  0  0  0  0  0  0  0  0  0  0  0
   -3.3872    1.8177   -5.9533 C   0  0  0  0  0  0  0  0  0  0  0  0
   -1.8224    1.2639   -0.2006 H   0  0  0  0  0  0  0  0  0  0  0  0
    0.2709    0.3289   -0.1217 H   0  0  0  0  0  0  0  0  0  0  0  0
    0.4712    2.3154    2.2019 H   0  0  0  0  0  0  0  0  0  0  0  0
    0.6839   -0.7896    5.5800 H   0  0  0  0  0  0  0  0  0  0  0  0
   -0.3141   -1.9456    2.8906 H   0  0  0  0  0  0  0  0  0  0  0  0
    1.3963   -3.2090    5.8998 H   0  0  0  0  0  0  0  0  0  0  0  0
    0.7707   -5.2762    7.0997 H   0  0  0  0  0  0  0  0  0  0  0  0
   -2.2927   -6.8897    6.3452 H   0  0  0  0  0  0  0  0  0  0  0  0
   -3.6144   -5.1545    4.1693 H   0  0  0  0  0  0  0  0  0  0  0  0
   -2.2858   -3.3981    3.6501 H   0  0  0  0  0  0  0  0  0  0  0  0
    2.7204    0.5940    1.0017 H   0  0  0  0  0  0  0  0  0  0  0  0
    2.9001    1.7242    2.3013 H   0  0  0  0  0  0  0  0  0  0  0  0
    4.6397    2.9317    0.5059 H   0  0  0  0  0  0  0  0  0  0  0  0
    1.6155    5.3772    1.7475 H   0  0  0  0  0  0  0  0  0  0  0  0
    2.1534    1.7512   -1.5288 H   0  0  0  0  0  0  0  0  0  0  0  0
    2.0098    3.4772   -1.5257 H   0  0  0  0  0  0  0  0  0  0  0  0
   -0.0973    3.3702   -0.2053 H   0  0  0  0  0  0  0  0  0  0  0  0
   -1.6417    3.6066   -4.5222 H   0  0  0  0  0  0  0  0  0  0  0  0
   -1.2589    0.6812   -3.5926 H   0  0  0  0  0  0  0  0  0  0  0  0
   -1.0109   -0.6198   -5.7614 H   0  0  0  0  0  0  0  0  0  0  0  0
   -2.1442   -1.3697   -7.8078 H   0  0  0  0  0  0  0  0  0  0  0  0
   -3.8277   -0.9181   -9.2774 H   0  0  0  0  0  0  0  0  0  0  0  0
   -5.3629    1.6030   -8.3929 H   0  0  0  0  0  0  0  0  0  0  0  0
   -3.7700    2.6989   -5.4470 H   0  0  0  0  0  0  0  0  0  0  0  0
  1  2  1  0
  2  3  1  0
  3  4  1  0
  4  5  1  0
  5  6  2  0
  5  7  1  0
  7  8  2  0
  8  9  1  0
  9 10  1  0
 10 11  2  0
 11 12  1  0
 12 13  1  0
 12 14  2  0
 14 15  1  0
 14 16  1  0
  3 17  1  0
 17 18  1  0
 18 19  1  6
 18 20  1  0
 20 21  2  0
 20 22  1  0
 18 23  1  0
 23 24  1  0
 24 25  1  0
 25 26  1  0
 26 27  2  0
 26 28  1  0
 28 29  2  0
 29 30  1  0
 30 31  1  0
 31 32  2  0
 32 33  1  0
 33 34  1  0
 33 35  2  0
 35 36  1  0
 35 37  1  0
 24  2  1  0
 37 30  2  0
 16  9  2  0
  1 38  1  0
  2 39  1  6
  3 40  1  1
  7 41  1  0
  8 42  1  0
 10 43  1  0
 11 44  1  0
 13 45  1  0
 15 46  1  0
 16 47  1  0
 17 48  1  0
 17 49  1  0
 19 50  1  0
 22 51  1  0
 23 52  1  0
 23 53  1  0
 24 54  1  1
 28 55  1  0
 29 56  1  0
 31 57  1  0
 32 58  1  0
 34 59  1  0
 36 60  1  0
 37 61  1  0
M  END
>  <clase>  (31) 
Ác. Hidroxicinámico

>  <carga>  (31) 
0

>  <InChIKey>  (31) 
KRZBCHWVBQOTNZ-CPYUJKAUSA-N

>  <estado_ionico>  (31) 
neutro

>  <parte_planta>  (31) 
fruto

$$$$
Cafeoilglucárico (isómeros A–D)
     RDKit          3D

 42 42  0  0  0  0  0  0  0  0999 V2000
   -3.3952    0.5840    3.3460 O   0  0  0  0  0  0  0  0  0  0  0  0
   -2.9022    0.6223    4.5967 C   0  0  0  0  0  0  0  0  0  0  0  0
   -3.2824    1.4578    5.4046 O   0  0  0  0  0  0  0  0  0  0  0  0
   -1.8991   -0.4798    4.8969 C   0  0  2  0  0  0  0  0  0  0  0  0
   -1.9380   -0.7847    6.3122 O   0  0  0  0  0  0  0  0  0  0  0  0
   -0.4544   -0.0645    4.5814 C   0  0  1  0  0  0  0  0  0  0  0  0
    0.4393   -1.0839    5.0631 O   0  0  0  0  0  0  0  0  0  0  0  0
   -0.1249    0.2465    3.1107 C   0  0  2  0  0  0  0  0  0  0  0  0
   -0.7206    1.5124    2.7672 O   0  0  0  0  0  0  0  0  0  0  0  0
   -0.5343   -0.8139    2.0745 C   0  0  1  0  0  0  0  0  0  0  0  0
   -0.1557   -0.2739    0.7809 O   0  0  0  0  0  0  0  0  0  0  0  0
   -0.6238   -0.9824   -0.2770 C   0  0  0  0  0  0  0  0  0  0  0  0
   -1.3652   -1.9481   -0.2255 O   0  0  0  0  0  0  0  0  0  0  0  0
   -0.0840   -0.3776   -1.5095 C   0  0  0  0  0  0  0  0  0  0  0  0
   -0.4565   -0.8564   -2.7058 C   0  0  0  0  0  0  0  0  0  0  0  0
    0.0280   -0.3092   -3.9786 C   0  0  0  0  0  0  0  0  0  0  0  0
   -0.8887   -0.1245   -5.0266 C   0  0  0  0  0  0  0  0  0  0  0  0
   -0.4680    0.3755   -6.2616 C   0  0  0  0  0  0  0  0  0  0  0  0
    0.8718    0.6761   -6.4478 C   0  0  0  0  0  0  0  0  0  0  0  0
    1.2842    1.1630   -7.6545 O   0  0  0  0  0  0  0  0  0  0  0  0
    1.7945    0.4797   -5.4242 C   0  0  0  0  0  0  0  0  0  0  0  0
    3.1030    0.7836   -5.6836 O   0  0  0  0  0  0  0  0  0  0  0  0
    1.3843   -0.0144   -4.1895 C   0  0  0  0  0  0  0  0  0  0  0  0
    0.2065   -2.1238    2.3106 C   0  0  0  0  0  0  0  0  0  0  0  0
    1.2992   -2.4292    1.8572 O   0  0  0  0  0  0  0  0  0  0  0  0
   -0.4845   -2.9871    3.0824 O   0  0  0  0  0  0  0  0  0  0  0  0
   -4.0017    1.3534    3.2988 H   0  0  0  0  0  0  0  0  0  0  0  0
   -2.1941   -1.4026    4.3914 H   0  0  0  0  0  0  0  0  0  0  0  0
   -2.2043    0.0433    6.7637 H   0  0  0  0  0  0  0  0  0  0  0  0
   -0.2251    0.8304    5.1756 H   0  0  0  0  0  0  0  0  0  0  0  0
    0.0571   -1.3811    5.9162 H   0  0  0  0  0  0  0  0  0  0  0  0
    0.9603    0.3989    3.0330 H   0  0  0  0  0  0  0  0  0  0  0  0
   -0.4812    1.6817    1.8357 H   0  0  0  0  0  0  0  0  0  0  0  0
   -1.6179   -0.9715    2.0714 H   0  0  0  0  0  0  0  0  0  0  0  0
    0.6024    0.4521   -1.3975 H   0  0  0  0  0  0  0  0  0  0  0  0
   -1.1699   -1.6762   -2.7789 H   0  0  0  0  0  0  0  0  0  0  0  0
   -1.9417   -0.3612   -4.8877 H   0  0  0  0  0  0  0  0  0  0  0  0
   -1.1783    0.5254   -7.0689 H   0  0  0  0  0  0  0  0  0  0  0  0
    2.2486    1.2888   -7.5519 H   0  0  0  0  0  0  0  0  0  0  0  0
    3.6307    0.5570   -4.8985 H   0  0  0  0  0  0  0  0  0  0  0  0
    2.1085   -0.1839   -3.3990 H   0  0  0  0  0  0  0  0  0  0  0  0
    0.1074   -3.7656    3.1568 H   0  0  0  0  0  0  0  0  0  0  0  0
  1  2  1  0
  2  3  2  0
  2  4  1  0
  4  5  1  0
  4  6  1  0
  6  7  1  0
  6  8  1  0
  8  9  1  0
  8 10  1  0
 10 11  1  0
 11 12  1  0
 12 13  2  0
 12 14  1  0
 14 15  2  0
 15 16  1  0
 16 17  1  0
 17 18  2  0
 18 19  1  0
 19 20  1  0
 19 21  2  0
 21 22  1  0
 21 23  1  0
 10 24  1  0
 24 25  2  0
 24 26  1  0
 23 16  2  0
  1 27  1  0
  4 28  1  6
  5 29  1  0
  6 30  1  1
  7 31  1  0
  8 32  1  1
  9 33  1  0
 10 34  1  6
 14 35  1  0
 15 36  1  0
 17 37  1  0
 18 38  1  0
 20 39  1  0
 22 40  1  0
 23 41  1  0
 26 42  1  0
M  END
>  <clase>  (32) 
Ác. Hidroxicinámico

>  <carga>  (32) 
0

>  <InChIKey>  (32) 
OMIXKOJEIRRAJW-HLWOJZJGSA-N

>  <estado_ionico>  (32) 
neutro

>  <parte_planta>  (32) 
fruto

$$$$
Dicafeoilglucárico
     RDKit          3D

 60 61  0  0  0  0  0  0  0  0999 V2000
   -1.4197    4.1415    4.9064 O   0  0  0  0  0  0  0  0  0  0  0  0
   -1.0471    3.1547    4.0556 C   0  0  0  0  0  0  0  0  0  0  0  0
   -1.8251    2.2630    3.7582 O   0  0  0  0  0  0  0  0  0  0  0  0
    0.4177    3.2961    3.6276 C   0  0  2  0  0  0  0  0  0  0  0  0
    0.9923    4.5403    4.0438 O   0  0  0  0  0  0  0  0  0  0  0  0
    0.6030    3.1415    2.1060 C   0  0  1  0  0  0  0  0  0  0  0  0
    0.1010    1.8631    1.6502 O   0  0  0  0  0  0  0  0  0  0  0  0
    0.8978    0.7906    1.8700 C   0  0  0  0  0  0  0  0  0  0  0  0
    2.0075    0.8074    2.3712 O   0  0  0  0  0  0  0  0  0  0  0  0
    0.1835   -0.4069    1.3923 C   0  0  0  0  0  0  0  0  0  0  0  0
    0.8317   -1.5724    1.2575 C   0  0  0  0  0  0  0  0  0  0  0  0
    0.1689   -2.7778    0.7507 C   0  0  0  0  0  0  0  0  0  0  0  0
   -1.0206   -3.2579    1.3248 C   0  0  0  0  0  0  0  0  0  0  0  0
   -1.6373   -4.4092    0.8263 C   0  0  0  0  0  0  0  0  0  0  0  0
   -1.0590   -5.0751   -0.2422 C   0  0  0  0  0  0  0  0  0  0  0  0
   -1.6715   -6.1817   -0.7576 O   0  0  0  0  0  0  0  0  0  0  0  0
    0.1233   -4.6122   -0.8121 C   0  0  0  0  0  0  0  0  0  0  0  0
    0.6208   -5.2947   -1.8889 O   0  0  0  0  0  0  0  0  0  0  0  0
    0.7494   -3.4730   -0.3185 C   0  0  0  0  0  0  0  0  0  0  0  0
   -0.0997    4.2669    1.3018 C   0  0  2  0  0  0  0  0  0  0  0  0
   -1.5243    4.0900    1.3807 O   0  0  0  0  0  0  0  0  0  0  0  0
    0.3473    4.2852   -0.1753 C   0  0  1  0  0  0  0  0  0  0  0  0
   -0.0772    3.0761   -0.8199 O   0  0  0  0  0  0  0  0  0  0  0  0
    0.5240    2.8360   -2.0097 C   0  0  0  0  0  0  0  0  0  0  0  0
    1.3459    3.5576   -2.5534 O   0  0  0  0  0  0  0  0  0  0  0  0
    0.1222    1.5333   -2.5789 C   0  0  0  0  0  0  0  0  0  0  0  0
   -0.7951    0.7230   -2.0281 C   0  0  0  0  0  0  0  0  0  0  0  0
   -1.1642   -0.6041   -2.5458 C   0  0  0  0  0  0  0  0  0  0  0  0
   -2.4354   -1.1166   -2.2278 C   0  0  0  0  0  0  0  0  0  0  0  0
   -2.8206   -2.3994   -2.6329 C   0  0  0  0  0  0  0  0  0  0  0  0
   -1.9252   -3.1747   -3.3534 C   0  0  0  0  0  0  0  0  0  0  0  0
   -2.2235   -4.4495   -3.7460 O   0  0  0  0  0  0  0  0  0  0  0  0
   -0.6635   -2.6801   -3.6686 C   0  0  0  0  0  0  0  0  0  0  0  0
    0.2260   -3.4785   -4.3342 O   0  0  0  0  0  0  0  0  0  0  0  0
   -0.2725   -1.4082   -3.2696 C   0  0  0  0  0  0  0  0  0  0  0  0
   -0.1819    5.5612   -0.8269 C   0  0  0  0  0  0  0  0  0  0  0  0
    0.1900    6.6975   -0.5725 O   0  0  0  0  0  0  0  0  0  0  0  0
   -1.1583    5.3568   -1.7361 O   0  0  0  0  0  0  0  0  0  0  0  0
   -2.3710    3.9628    5.0707 H   0  0  0  0  0  0  0  0  0  0  0  0
    0.9567    2.5072    4.1636 H   0  0  0  0  0  0  0  0  0  0  0  0
    0.4626    4.8322    4.8142 H   0  0  0  0  0  0  0  0  0  0  0  0
    1.6768    3.2159    1.8842 H   0  0  0  0  0  0  0  0  0  0  0  0
   -0.8646   -0.2923    1.1436 H   0  0  0  0  0  0  0  0  0  0  0  0
    1.8924   -1.6589    1.4847 H   0  0  0  0  0  0  0  0  0  0  0  0
   -1.4729   -2.7444    2.1704 H   0  0  0  0  0  0  0  0  0  0  0  0
   -2.5567   -4.7793    1.2687 H   0  0  0  0  0  0  0  0  0  0  0  0
   -1.0491   -6.4964   -1.4452 H   0  0  0  0  0  0  0  0  0  0  0  0
    1.1550   -4.6623   -2.4079 H   0  0  0  0  0  0  0  0  0  0  0  0
    1.6707   -3.1148   -0.7680 H   0  0  0  0  0  0  0  0  0  0  0  0
    0.1273    5.2394    1.7529 H   0  0  0  0  0  0  0  0  0  0  0  0
   -1.7138    3.2012    1.0192 H   0  0  0  0  0  0  0  0  0  0  0  0
    1.4437    4.3423   -0.2107 H   0  0  0  0  0  0  0  0  0  0  0  0
    0.6492    1.2785   -3.4915 H   0  0  0  0  0  0  0  0  0  0  0  0
   -1.3250    1.0304   -1.1296 H   0  0  0  0  0  0  0  0  0  0  0  0
   -3.1421   -0.5185   -1.6554 H   0  0  0  0  0  0  0  0  0  0  0  0
   -3.8061   -2.7705   -2.3708 H   0  0  0  0  0  0  0  0  0  0  0  0
   -2.9941   -4.7443   -3.2272 H   0  0  0  0  0  0  0  0  0  0  0  0
   -0.3022   -4.2701   -4.5713 H   0  0  0  0  0  0  0  0  0  0  0  0
    0.7319   -1.0735   -3.5085 H   0  0  0  0  0  0  0  0  0  0  0  0
   -1.3788    6.2576   -2.0531 H   0  0  0  0  0  0  0  0  0  0  0  0
  1  2  1  0
  2  3  2  0
  2  4  1  0
  4  5  1  0
  4  6  1  0
  6  7  1  0
  7  8  1  0
  8  9  2  0
  8 10  1  0
 10 11  2  0
 11 12  1  0
 12 13  1  0
 13 14  2  0
 14 15  1  0
 15 16  1  0
 15 17  2  0
 17 18  1  0
 17 19  1  0
  6 20  1  0
 20 21  1  0
 20 22  1  0
 22 23  1  0
 23 24  1  0
 24 25  2  0
 24 26  1  0
 26 27  2  0
 27 28  1  0
 28 29  1  0
 29 30  2  0
 30 31  1  0
 31 32  1  0
 31 33  2  0
 33 34  1  0
 33 35  1  0
 22 36  1  0
 36 37  2  0
 36 38  1  0
 19 12  2  0
 35 28  2  0
  1 39  1  0
  4 40  1  1
  5 41  1  0
  6 42  1  1
 10 43  1  0
 11 44  1  0
 13 45  1  0
 14 46  1  0
 16 47  1  0
 18 48  1  0
 19 49  1  0
 20 50  1  1
 21 51  1  0
 22 52  1  1
 26 53  1  0
 27 54  1  0
 29 55  1  0
 30 56  1  0
 32 57  1  0
 34 58  1  0
 35 59  1  0
 38 60  1  0
M  END
>  <clase>  (33) 
Ác. Hidroxicinámico

>  <carga>  (33) 
0

>  <InChIKey>  (33) 
ZQGMKFHEDFDRLZ-BYCAZERCSA-N

>  <estado_ionico>  (33) 
neutro

>  <parte_planta>  (33) 
fruto

$$$$
Ácido Gálico
     RDKit          3D

 18 18  0  0  0  0  0  0  0  0999 V2000
   -0.4887    2.1948   -1.5727 O   0  0  0  0  0  0  0  0  0  0  0  0
   -0.6340    0.8639   -1.4658 C   0  0  0  0  0  0  0  0  0  0  0  0
   -0.3761    0.1184   -2.3930 O   0  0  0  0  0  0  0  0  0  0  0  0
   -1.1263    0.4387   -0.1343 C   0  0  0  0  0  0  0  0  0  0  0  0
   -1.4006    1.3642    0.8837 C   0  0  0  0  0  0  0  0  0  0  0  0
   -1.8598    0.9047    2.1108 C   0  0  0  0  0  0  0  0  0  0  0  0
   -2.1282    1.8008    3.1044 O   0  0  0  0  0  0  0  0  0  0  0  0
   -2.0466   -0.4539    2.3317 C   0  0  0  0  0  0  0  0  0  0  0  0
   -2.5004   -0.8729    3.5529 O   0  0  0  0  0  0  0  0  0  0  0  0
   -1.7755   -1.3730    1.3247 C   0  0  0  0  0  0  0  0  0  0  0  0
   -1.9778   -2.6966    1.5994 O   0  0  0  0  0  0  0  0  0  0  0  0
   -1.3146   -0.9377    0.0872 C   0  0  0  0  0  0  0  0  0  0  0  0
   -0.1633    2.3319   -2.4868 H   0  0  0  0  0  0  0  0  0  0  0  0
   -1.2612    2.4306    0.7311 H   0  0  0  0  0  0  0  0  0  0  0  0
   -2.4316    1.2542    3.8576 H   0  0  0  0  0  0  0  0  0  0  0  0
   -2.5516   -1.8476    3.4705 H   0  0  0  0  0  0  0  0  0  0  0  0
   -1.7478   -3.2144    0.8072 H   0  0  0  0  0  0  0  0  0  0  0  0
   -1.0986   -1.6448   -0.7094 H   0  0  0  0  0  0  0  0  0  0  0  0
  1  2  1  0
  2  3  2  0
  2  4  1  0
  4  5  1  0
  5  6  2  0
  6  7  1  0
  6  8  1  0
  8  9  1  0
  8 10  2  0
 10 11  1  0
 10 12  1  0
 12  4  2  0
  1 13  1  0
  5 14  1  0
  7 15  1  0
  9 16  1  0
 11 17  1  0
 12 18  1  0
M  END
>  <clase>  (34) 
Ác. Hidroxibenzoico

>  <carga>  (34) 
0

>  <InChIKey>  (34) 
LNTHITQWFMADLM-UHFFFAOYSA-N

>  <estado_ionico>  (34) 
neutro

>  <parte_planta>  (34) 
hojas|tallo

$$$$
Ácido Protocatéquico
     RDKit          3D

 17 17  0  0  0  0  0  0  0  0999 V2000
   -0.7234    0.0234   -2.0216 O   0  0  0  0  0  0  0  0  0  0  0  0
   -1.7967   -0.5120   -1.4126 C   0  0  0  0  0  0  0  0  0  0  0  0
   -2.6776   -1.0568   -2.0507 O   0  0  0  0  0  0  0  0  0  0  0  0
   -1.7581   -0.3542    0.0614 C   0  0  0  0  0  0  0  0  0  0  0  0
   -2.8266   -0.8740    0.8108 C   0  0  0  0  0  0  0  0  0  0  0  0
   -2.8364   -0.7506    2.2017 C   0  0  0  0  0  0  0  0  0  0  0  0
   -1.7790   -0.1095    2.8299 C   0  0  0  0  0  0  0  0  0  0  0  0
   -1.7882    0.0113    4.1895 O   0  0  0  0  0  0  0  0  0  0  0  0
   -0.7156    0.4085    2.0928 C   0  0  0  0  0  0  0  0  0  0  0  0
    0.2910    1.0273    2.7822 O   0  0  0  0  0  0  0  0  0  0  0  0
   -0.6936    0.2924    0.7077 C   0  0  0  0  0  0  0  0  0  0  0  0
   -0.8855   -0.1540   -2.9726 H   0  0  0  0  0  0  0  0  0  0  0  0
   -3.6540   -1.3763    0.3128 H   0  0  0  0  0  0  0  0  0  0  0  0
   -3.6591   -1.1500    2.7873 H   0  0  0  0  0  0  0  0  0  0  0  0
   -0.9606    0.4872    4.4017 H   0  0  0  0  0  0  0  0  0  0  0  0
    0.9570    1.3353    2.1429 H   0  0  0  0  0  0  0  0  0  0  0  0
    0.1328    0.6947    0.1309 H   0  0  0  0  0  0  0  0  0  0  0  0
  1  2  1  0
  2  3  2  0
  2  4  1  0
  4  5  1  0
  5  6  2  0
  6  7  1  0
  7  8  1  0
  7  9  2  0
  9 10  1  0
  9 11  1  0
 11  4  2  0
  1 12  1  0
  5 13  1  0
  6 14  1  0
  8 15  1  0
 10 16  1  0
 11 17  1  0
M  END
>  <clase>  (35) 
Ác. Hidroxibenzoico

>  <carga>  (35) 
0

>  <InChIKey>  (35) 
YQUVCSBJEUQKSH-UHFFFAOYSA-N

>  <estado_ionico>  (35) 
neutro

>  <parte_planta>  (35) 
tallo

$$$$
Ácido Vanílico
     RDKit          3D

 20 20  0  0  0  0  0  0  0  0999 V2000
    2.1741   -0.4658    1.5601 O   0  0  0  0  0  0  0  0  0  0  0  0
    1.2282   -0.7648    0.6532 C   0  0  0  0  0  0  0  0  0  0  0  0
    1.4907   -1.4039   -0.3490 O   0  0  0  0  0  0  0  0  0  0  0  0
   -0.1099   -0.2389    1.0175 C   0  0  0  0  0  0  0  0  0  0  0  0
   -0.3224    0.4901    2.1960 C   0  0  0  0  0  0  0  0  0  0  0  0
   -1.5975    0.9657    2.4988 C   0  0  0  0  0  0  0  0  0  0  0  0
   -2.6445    0.7081    1.6223 C   0  0  0  0  0  0  0  0  0  0  0  0
   -3.8855    1.1865    1.9439 O   0  0  0  0  0  0  0  0  0  0  0  0
   -2.4547   -0.0177    0.4399 C   0  0  0  0  0  0  0  0  0  0  0  0
   -3.5825   -0.1895   -0.3208 O   0  0  0  0  0  0  0  0  0  0  0  0
   -3.4295   -0.9229   -1.5315 C   0  0  0  0  0  0  0  0  0  0  0  0
   -1.1783   -0.4920    0.1398 C   0  0  0  0  0  0  0  0  0  0  0  0
    2.9898   -0.8686    1.1952 H   0  0  0  0  0  0  0  0  0  0  0  0
    0.4960    0.6923    2.8827 H   0  0  0  0  0  0  0  0  0  0  0  0
   -1.7751    1.5316    3.4087 H   0  0  0  0  0  0  0  0  0  0  0  0
   -4.4655    0.9014    1.2110 H   0  0  0  0  0  0  0  0  0  0  0  0
   -3.1048   -1.9495   -1.3322 H   0  0  0  0  0  0  0  0  0  0  0  0
   -2.7423   -0.4149   -2.2161 H   0  0  0  0  0  0  0  0  0  0  0  0
   -4.4086   -0.9717   -2.0177 H   0  0  0  0  0  0  0  0  0  0  0  0
   -0.9820   -1.0595   -0.7649 H   0  0  0  0  0  0  0  0  0  0  0  0
  1  2  1  0
  2  3  2  0
  2  4  1  0
  4  5  1  0
  5  6  2  0
  6  7  1  0
  7  8  1  0
  7  9  2  0
  9 10  1  0
 10 11  1  0
  9 12  1  0
 12  4  2  0
  1 13  1  0
  5 14  1  0
  6 15  1  0
  8 16  1  0
 11 17  1  0
 11 18  1  0
 11 19  1  0
 12 20  1  0
M  END
>  <clase>  (36) 
Ác. Hidroxibenzoico

>  <carga>  (36) 
0

>  <InChIKey>  (36) 
WKOLLVMJNQIZCI-UHFFFAOYSA-N

>  <estado_ionico>  (36) 
neutro

>  <parte_planta>  (36) 
tallo

$$$$
Ácido Elágico
     RDKit          3D

 28 31  0  0  0  0  0  0  0  0999 V2000
    0.9501    2.3171   -2.3816 O   0  0  0  0  0  0  0  0  0  0  0  0
    0.4428    1.5909   -1.5381 C   0  0  0  0  0  0  0  0  0  0  0  0
   -0.0882    2.1105   -0.3529 O   0  0  0  0  0  0  0  0  0  0  0  0
   -0.6803    1.3029    0.6408 C   0  0  0  0  0  0  0  0  0  0  0  0
   -1.1802    1.9094    1.7845 C   0  0  0  0  0  0  0  0  0  0  0  0
   -1.1176    3.2599    1.9786 O   0  0  0  0  0  0  0  0  0  0  0  0
   -1.7661    1.1217    2.7707 C   0  0  0  0  0  0  0  0  0  0  0  0
   -2.2627    1.7018    3.9015 O   0  0  0  0  0  0  0  0  0  0  0  0
   -1.8569   -0.2597    2.6258 C   0  0  0  0  0  0  0  0  0  0  0  0
   -1.3483   -0.8599    1.4662 C   0  0  0  0  0  0  0  0  0  0  0  0
   -1.4328   -2.3326    1.2870 C   0  0  0  0  0  0  0  0  0  0  0  0
   -1.9401   -3.0588    2.1305 O   0  0  0  0  0  0  0  0  0  0  0  0
   -0.9018   -2.8522    0.1018 O   0  0  0  0  0  0  0  0  0  0  0  0
   -0.3098   -2.0446   -0.8920 C   0  0  0  0  0  0  0  0  0  0  0  0
    0.1902   -2.6511   -2.0356 C   0  0  0  0  0  0  0  0  0  0  0  0
    0.1276   -4.0016   -2.2298 O   0  0  0  0  0  0  0  0  0  0  0  0
    0.7761   -1.8634   -3.0218 C   0  0  0  0  0  0  0  0  0  0  0  0
    1.2727   -2.4435   -4.1526 O   0  0  0  0  0  0  0  0  0  0  0  0
    0.8669   -0.4821   -2.8769 C   0  0  0  0  0  0  0  0  0  0  0  0
    0.3583    0.1181   -1.7173 C   0  0  0  0  0  0  0  0  0  0  0  0
   -0.2315   -0.6671   -0.7228 C   0  0  0  0  0  0  0  0  0  0  0  0
   -0.7585   -0.0746    0.4717 C   0  0  0  0  0  0  0  0  0  0  0  0
   -0.6800    3.6445    1.1939 H   0  0  0  0  0  0  0  0  0  0  0  0
   -2.0971    2.6608    3.7968 H   0  0  0  0  0  0  0  0  0  0  0  0
   -2.3189   -0.8570    3.4089 H   0  0  0  0  0  0  0  0  0  0  0  0
   -0.3100   -4.3863   -1.4450 H   0  0  0  0  0  0  0  0  0  0  0  0
    1.1071   -3.4025   -4.0479 H   0  0  0  0  0  0  0  0  0  0  0  0
    1.3289    0.1153   -3.6600 H   0  0  0  0  0  0  0  0  0  0  0  0
  1  2  2  0
  2  3  1  0
  3  4  1  0
  4  5  2  0
  5  6  1  0
  5  7  1  0
  7  8  1  0
  7  9  2  0
  9 10  1  0
 10 11  1  0
 11 12  2  0
 11 13  1  0
 13 14  1  0
 14 15  1  0
 15 16  1  0
 15 17  2  0
 17 18  1  0
 17 19  1  0
 19 20  2  0
 20 21  1  0
 21 22  1  0
 20  2  1  0
 22  4  1  0
 22 10  2  0
 21 14  2  0
  6 23  1  0
  8 24  1  0
  9 25  1  0
 16 26  1  0
 18 27  1  0
 19 28  1  0
M  END
>  <clase>  (37) 
Ác. Hidroxibenzoico

>  <carga>  (37) 
0

>  <InChIKey>  (37) 
AFSDNFLWKVMVRB-UHFFFAOYSA-N

>  <estado_ionico>  (37) 
neutro

>  <parte_planta>  (37) 
fruto|tallo

$$$$
Procianidina B1
     RDKit          3D

 68 73  0  0  0  0  0  0  0  0999 V2000
   -1.7556    1.6034   -3.1940 O   0  0  0  0  0  0  0  0  0  0  0  0
   -1.9901    0.6996   -2.0977 C   0  0  2  0  0  0  0  0  0  0  0  0
   -3.4240    0.7459   -1.5362 C   0  0  2  0  0  0  0  0  0  0  0  0
   -4.0474    2.0625   -1.0748 C   0  0  0  0  0  0  0  0  0  0  0  0
   -3.4229    3.3149   -1.2080 C   0  0  0  0  0  0  0  0  0  0  0  0
   -4.0503    4.4900   -0.7732 C   0  0  0  0  0  0  0  0  0  0  0  0
   -5.3162    4.4188   -0.2102 C   0  0  0  0  0  0  0  0  0  0  0  0
   -5.9765    5.5311    0.2321 O   0  0  0  0  0  0  0  0  0  0  0  0
   -5.9548    3.1916   -0.0837 C   0  0  0  0  0  0  0  0  0  0  0  0
   -7.2035    3.1249    0.4650 O   0  0  0  0  0  0  0  0  0  0  0  0
   -5.3382    2.0234   -0.5102 C   0  0  0  0  0  0  0  0  0  0  0  0
   -3.5425   -0.2690   -0.5163 O   0  0  0  0  0  0  0  0  0  0  0  0
   -2.6595   -0.0869    0.5200 C   0  0  0  0  0  0  0  0  0  0  0  0
   -3.1074   -0.5256    1.7684 C   0  0  0  0  0  0  0  0  0  0  0  0
   -2.3412   -0.2623    2.8948 C   0  0  0  0  0  0  0  0  0  0  0  0
   -2.7420   -0.6574    4.1368 O   0  0  0  0  0  0  0  0  0  0  0  0
   -1.1524    0.4456    2.7919 C   0  0  0  0  0  0  0  0  0  0  0  0
   -0.7104    0.8572    1.5344 C   0  0  0  0  0  0  0  0  0  0  0  0
    0.4300    1.5993    1.4326 O   0  0  0  0  0  0  0  0  0  0  0  0
   -1.4132    0.5388    0.3652 C   0  0  0  0  0  0  0  0  0  0  0  0
   -0.9126    0.9325   -1.0116 C   0  0  1  0  0  0  0  0  0  0  0  0
    0.4405    0.3244   -1.5624 C   0  0  2  0  0  0  0  0  0  0  0  0
    0.7467   -1.1513   -1.2379 C   0  0  2  0  0  0  0  0  0  0  0  0
   -0.4593   -1.9196   -1.2075 O   0  0  0  0  0  0  0  0  0  0  0  0
    1.5816   -1.2647    0.0508 C   0  0  1  0  0  0  0  0  0  0  0  0
    1.9473   -2.7167    0.3433 C   0  0  0  0  0  0  0  0  0  0  0  0
    1.2774   -3.4177    1.3657 C   0  0  0  0  0  0  0  0  0  0  0  0
    1.5767   -4.7572    1.6337 C   0  0  0  0  0  0  0  0  0  0  0  0
    2.5452   -5.3993    0.8734 C   0  0  0  0  0  0  0  0  0  0  0  0
    2.8806   -6.7080    1.0854 O   0  0  0  0  0  0  0  0  0  0  0  0
    3.2094   -4.7169   -0.1419 C   0  0  0  0  0  0  0  0  0  0  0  0
    4.1552   -5.3593   -0.8885 O   0  0  0  0  0  0  0  0  0  0  0  0
    2.9232   -3.3861   -0.4126 C   0  0  0  0  0  0  0  0  0  0  0  0
    2.8031   -0.5213   -0.0151 O   0  0  0  0  0  0  0  0  0  0  0  0
    2.7315    0.7259   -0.5729 C   0  0  0  0  0  0  0  0  0  0  0  0
    3.8654    1.5176   -0.3718 C   0  0  0  0  0  0  0  0  0  0  0  0
    3.9320    2.7880   -0.9255 C   0  0  0  0  0  0  0  0  0  0  0  0
    5.0542    3.5285   -0.6963 O   0  0  0  0  0  0  0  0  0  0  0  0
    2.8887    3.2762   -1.6990 C   0  0  0  0  0  0  0  0  0  0  0  0
    1.7632    2.4800   -1.9122 C   0  0  0  0  0  0  0  0  0  0  0  0
    0.8124    3.0324   -2.7309 O   0  0  0  0  0  0  0  0  0  0  0  0
    1.6530    1.2000   -1.3355 C   0  0  0  0  0  0  0  0  0  0  0  0
   -2.4788    1.4676   -3.8350 H   0  0  0  0  0  0  0  0  0  0  0  0
   -1.8611   -0.3092   -2.5105 H   0  0  0  0  0  0  0  0  0  0  0  0
   -4.0753    0.4184   -2.3593 H   0  0  0  0  0  0  0  0  0  0  0  0
   -2.4340    3.4103   -1.6488 H   0  0  0  0  0  0  0  0  0  0  0  0
   -3.5328    5.4376   -0.8855 H   0  0  0  0  0  0  0  0  0  0  0  0
   -5.3927    6.2979    0.1000 H   0  0  0  0  0  0  0  0  0  0  0  0
   -7.4188    4.0523    0.6889 H   0  0  0  0  0  0  0  0  0  0  0  0
   -5.8628    1.0778   -0.3943 H   0  0  0  0  0  0  0  0  0  0  0  0
   -4.0653   -1.0300    1.8407 H   0  0  0  0  0  0  0  0  0  0  0  0
   -3.6264   -1.0545    4.0630 H   0  0  0  0  0  0  0  0  0  0  0  0
   -0.5920    0.6744    3.6925 H   0  0  0  0  0  0  0  0  0  0  0  0
    0.7944    1.7650    2.3181 H   0  0  0  0  0  0  0  0  0  0  0  0
   -0.7833    2.0203   -0.9452 H   0  0  0  0  0  0  0  0  0  0  0  0
    0.3462    0.3157   -2.6599 H   0  0  0  0  0  0  0  0  0  0  0  0
    1.3453   -1.5466   -2.0715 H   0  0  0  0  0  0  0  0  0  0  0  0
   -0.2050   -2.8502   -1.0656 H   0  0  0  0  0  0  0  0  0  0  0  0
    1.0247   -0.9073    0.9168 H   0  0  0  0  0  0  0  0  0  0  0  0
    0.5139   -2.9180    1.9613 H   0  0  0  0  0  0  0  0  0  0  0  0
    1.0475   -5.2714    2.4295 H   0  0  0  0  0  0  0  0  0  0  0  0
    2.3633   -7.0334    1.8421 H   0  0  0  0  0  0  0  0  0  0  0  0
    4.1961   -6.2597   -0.5093 H   0  0  0  0  0  0  0  0  0  0  0  0
    3.4652   -2.8738   -1.2038 H   0  0  0  0  0  0  0  0  0  0  0  0
    4.6971    1.1384    0.2153 H   0  0  0  0  0  0  0  0  0  0  0  0
    4.9608    4.3775   -1.1592 H   0  0  0  0  0  0  0  0  0  0  0  0
    2.9341    4.2605   -2.1531 H   0  0  0  0  0  0  0  0  0  0  0  0
    0.0846    2.4091   -2.9181 H   0  0  0  0  0  0  0  0  0  0  0  0
  1  2  1  0
  2  3  1  0
  3  4  1  0
  4  5  1  0
  5  6  2  0
  6  7  1  0
  7  8  1  0
  7  9  2  0
  9 10  1  0
  9 11  1  0
  3 12  1  0
 12 13  1  0
 13 14  2  0
 14 15  1  0
 15 16  1  0
 15 17  2  0
 17 18  1  0
 18 19  1  0
 18 20  2  0
 20 21  1  0
 21 22  1  0
 22 23  1  0
 23 24  1  0
 23 25  1  0
 25 26  1  0
 26 27  1  0
 27 28  2  0
 28 29  1  0
 29 30  1  0
 29 31  2  0
 31 32  1  0
 31 33  1  0
 25 34  1  0
 34 35  1  0
 35 36  2  0
 36 37  1  0
 37 38  1  0
 37 39  2  0
 39 40  1  0
 40 41  1  0
 40 42  2  0
 21  2  1  0
 42 22  1  0
 11  4  2  0
 20 13  1  0
 33 26  2  0
 42 35  1  0
  1 43  1  0
  2 44  1  6
  3 45  1  6
  5 46  1  0
  6 47  1  0
  8 48  1  0
 10 49  1  0
 11 50  1  0
 14 51  1  0
 16 52  1  0
 17 53  1  0
 19 54  1  0
 21 55  1  1
 22 56  1  6
 23 57  1  6
 24 58  1  0
 25 59  1  1
 27 60  1  0
 28 61  1  0
 30 62  1  0
 32 63  1  0
 33 64  1  0
 36 65  1  0
 38 66  1  0
 39 67  1  0
 41 68  1  0
M  END
>  <clase>  (38) 
Tanino Condensado

>  <carga>  (38) 
0

>  <InChIKey>  (38) 
UPSCCKSYXWBZPX-FSIJYMTBSA-N

>  <estado_ionico>  (38) 
neutro

>  <parte_planta>  (38) 
fruto|tallo

$$$$
Procianidina B2
     RDKit          3D

 68 73  0  0  0  0  0  0  0  0999 V2000
   -0.4487    3.0907   -1.8543 O   0  0  0  0  0  0  0  0  0  0  0  0
   -0.8167    2.5159   -0.5870 C   0  0  1  0  0  0  0  0  0  0  0  0
   -2.1911    1.8092   -0.6070 C   0  0  2  0  0  0  0  0  0  0  0  0
   -3.2988    2.8024   -0.9333 C   0  0  0  0  0  0  0  0  0  0  0  0
   -3.7956    3.6881    0.0431 C   0  0  0  0  0  0  0  0  0  0  0  0
   -4.7927    4.6179   -0.2691 C   0  0  0  0  0  0  0  0  0  0  0  0
   -5.2905    4.6666   -1.5643 C   0  0  0  0  0  0  0  0  0  0  0  0
   -6.2626    5.5540   -1.9334 O   0  0  0  0  0  0  0  0  0  0  0  0
   -4.8027    3.7993   -2.5373 C   0  0  0  0  0  0  0  0  0  0  0  0
   -5.2915    3.8585   -3.8106 O   0  0  0  0  0  0  0  0  0  0  0  0
   -3.8168    2.8697   -2.2364 C   0  0  0  0  0  0  0  0  0  0  0  0
   -2.5361    1.1733    0.6350 O   0  0  0  0  0  0  0  0  0  0  0  0
   -1.5185    0.7695    1.4543 C   0  0  0  0  0  0  0  0  0  0  0  0
   -1.9201    0.1909    2.6606 C   0  0  0  0  0  0  0  0  0  0  0  0
   -0.9608   -0.2024    3.5867 C   0  0  0  0  0  0  0  0  0  0  0  0
   -1.3102   -0.7740    4.7742 O   0  0  0  0  0  0  0  0  0  0  0  0
    0.3908   -0.0117    3.3362 C   0  0  0  0  0  0  0  0  0  0  0  0
    0.7824    0.5491    2.1239 C   0  0  0  0  0  0  0  0  0  0  0  0
    2.1053    0.7624    1.8664 O   0  0  0  0  0  0  0  0  0  0  0  0
   -0.1583    0.9244    1.1573 C   0  0  0  0  0  0  0  0  0  0  0  0
    0.2638    1.4987   -0.1707 C   0  0  1  0  0  0  0  0  0  0  0  0
    0.5589    0.4666   -1.3214 C   0  0  2  0  0  0  0  0  0  0  0  0
    0.0078   -0.9680   -1.1606 C   0  0  1  0  0  0  0  0  0  0  0  0
   -0.5412   -1.3808   -2.4443 O   0  0  0  0  0  0  0  0  0  0  0  0
    1.0460   -2.0376   -0.7220 C   0  0  2  0  0  0  0  0  0  0  0  0
    0.4280   -3.0225    0.2723 C   0  0  0  0  0  0  0  0  0  0  0  0
    0.9044   -3.1521    1.5897 C   0  0  0  0  0  0  0  0  0  0  0  0
    0.3043   -4.0385    2.4885 C   0  0  0  0  0  0  0  0  0  0  0  0
   -0.7695   -4.8058    2.0689 C   0  0  0  0  0  0  0  0  0  0  0  0
   -1.3594   -5.6695    2.9467 O   0  0  0  0  0  0  0  0  0  0  0  0
   -1.2488   -4.7038    0.7675 C   0  0  0  0  0  0  0  0  0  0  0  0
   -2.3126   -5.4891    0.4169 O   0  0  0  0  0  0  0  0  0  0  0  0
   -0.6582   -3.8238   -0.1334 C   0  0  0  0  0  0  0  0  0  0  0  0
    2.2643   -1.4972   -0.1982 O   0  0  0  0  0  0  0  0  0  0  0  0
    2.8195   -0.5724   -1.0392 C   0  0  0  0  0  0  0  0  0  0  0  0
    4.1975   -0.6213   -1.2293 C   0  0  0  0  0  0  0  0  0  0  0  0
    4.8021    0.3210   -2.0505 C   0  0  0  0  0  0  0  0  0  0  0  0
    6.1512    0.2353   -2.2338 O   0  0  0  0  0  0  0  0  0  0  0  0
    4.0520    1.3229   -2.6576 C   0  0  0  0  0  0  0  0  0  0  0  0
    2.6782    1.3852   -2.4269 C   0  0  0  0  0  0  0  0  0  0  0  0
    2.0187    2.4272   -3.0181 O   0  0  0  0  0  0  0  0  0  0  0  0
    2.0395    0.4290   -1.6266 C   0  0  0  0  0  0  0  0  0  0  0  0
   -1.1139    3.7803   -2.0527 H   0  0  0  0  0  0  0  0  0  0  0  0
   -0.8270    3.3359    0.1449 H   0  0  0  0  0  0  0  0  0  0  0  0
   -2.2063    1.0302   -1.3793 H   0  0  0  0  0  0  0  0  0  0  0  0
   -3.4093    3.6496    1.0610 H   0  0  0  0  0  0  0  0  0  0  0  0
   -5.1605    5.2837    0.5050 H   0  0  0  0  0  0  0  0  0  0  0  0
   -6.5189    6.0672   -1.1477 H   0  0  0  0  0  0  0  0  0  0  0  0
   -5.9706    4.5621   -3.7807 H   0  0  0  0  0  0  0  0  0  0  0  0
   -3.4593    2.2049   -3.0192 H   0  0  0  0  0  0  0  0  0  0  0  0
   -2.9791    0.0664    2.8641 H   0  0  0  0  0  0  0  0  0  0  0  0
   -2.2564   -0.9952    4.7459 H   0  0  0  0  0  0  0  0  0  0  0  0
    1.1167   -0.3070    4.0865 H   0  0  0  0  0  0  0  0  0  0  0  0
    2.6399    0.3149    2.5435 H   0  0  0  0  0  0  0  0  0  0  0  0
    1.1644    2.1099   -0.0131 H   0  0  0  0  0  0  0  0  0  0  0  0
    0.0920    0.8403   -2.2417 H   0  0  0  0  0  0  0  0  0  0  0  0
   -0.8675   -0.9746   -0.5086 H   0  0  0  0  0  0  0  0  0  0  0  0
    0.1736   -1.3026   -3.1042 H   0  0  0  0  0  0  0  0  0  0  0  0
    1.3324   -2.6521   -1.5894 H   0  0  0  0  0  0  0  0  0  0  0  0
    1.7468   -2.5565    1.9338 H   0  0  0  0  0  0  0  0  0  0  0  0
    0.6720   -4.1244    3.5063 H   0  0  0  0  0  0  0  0  0  0  0  0
   -2.0664   -6.0984    2.4248 H   0  0  0  0  0  0  0  0  0  0  0  0
   -2.5367   -5.2933   -0.5095 H   0  0  0  0  0  0  0  0  0  0  0  0
   -1.0365   -3.7413   -1.1493 H   0  0  0  0  0  0  0  0  0  0  0  0
    4.7928   -1.3907   -0.7479 H   0  0  0  0  0  0  0  0  0  0  0  0
    6.4307    0.9666   -2.8095 H   0  0  0  0  0  0  0  0  0  0  0  0
    4.5164    2.0717   -3.2910 H   0  0  0  0  0  0  0  0  0  0  0  0
    1.1592    2.5964   -2.5781 H   0  0  0  0  0  0  0  0  0  0  0  0
  1  2  1  0
  2  3  1  0
  3  4  1  0
  4  5  1  0
  5  6  2  0
  6  7  1  0
  7  8  1  0
  7  9  2  0
  9 10  1  0
  9 11  1  0
  3 12  1  0
 12 13  1  0
 13 14  2  0
 14 15  1  0
 15 16  1  0
 15 17  2  0
 17 18  1  0
 18 19  1  0
 18 20  2  0
 20 21  1  0
 21 22  1  0
 22 23  1  0
 23 24  1  0
 23 25  1  0
 25 26  1  0
 26 27  1  0
 27 28  2  0
 28 29  1  0
 29 30  1  0
 29 31  2  0
 31 32  1  0
 31 33  1  0
 25 34  1  0
 34 35  1  0
 35 36  2  0
 36 37  1  0
 37 38  1  0
 37 39  2  0
 39 40  1  0
 40 41  1  0
 40 42  2  0
 21  2  1  0
 42 22  1  0
 11  4  2  0
 20 13  1  0
 33 26  2  0
 42 35  1  0
  1 43  1  0
  2 44  1  1
  3 45  1  6
  5 46  1  0
  6 47  1  0
  8 48  1  0
 10 49  1  0
 11 50  1  0
 14 51  1  0
 16 52  1  0
 17 53  1  0
 19 54  1  0
 21 55  1  1
 22 56  1  6
 23 57  1  1
 24 58  1  0
 25 59  1  6
 27 60  1  0
 28 61  1  0
 30 62  1  0
 32 63  1  0
 33 64  1  0
 36 65  1  0
 38 66  1  0
 39 67  1  0
 41 68  1  0
M  END
>  <clase>  (39) 
Tanino Condensado

>  <carga>  (39) 
0

>  <InChIKey>  (39) 
UPSCCKSYXWBZPX-KWKLTRBOSA-N

>  <estado_ionico>  (39) 
neutro

>  <parte_planta>  (39) 
fruto|hojas|tallo

$$$$
Berberina (*alcaloide, no polifenol)
     RDKit          3D

 43 47  0  0  0  0  0  0  0  0999 V2000
   -0.1450   -6.5496    0.7626 C   0  0  0  0  0  0  0  0  0  0  0  0
   -0.9202   -5.4068    1.1075 O   0  0  0  0  0  0  0  0  0  0  0  0
   -0.5297   -4.1861    0.6312 C   0  0  0  0  0  0  0  0  0  0  0  0
    0.5649   -4.0052   -0.2189 C   0  0  0  0  0  0  0  0  0  0  0  0
    0.9536   -2.7261   -0.6261 C   0  0  0  0  0  0  0  0  0  0  0  0
    0.2623   -1.5934   -0.1826 C   0  0  0  0  0  0  0  0  0  0  0  0
    0.6566   -0.3065   -0.5616 C   0  0  0  0  0  0  0  0  0  0  0  0
   -0.0372    0.8226   -0.1028 C   0  0  0  0  0  0  0  0  0  0  0  0
   -1.1202    0.6437    0.7051 N   0  0  0  0  0  0  0  0  0  0  0  0
   -1.5100   -0.5964    1.0845 C   0  0  0  0  0  0  0  0  0  0  0  0
   -0.8469   -1.7525    0.6605 C   0  0  0  0  0  0  0  0  0  0  0  0
   -1.2589   -3.0548    1.0477 C   0  0  0  0  0  0  0  0  0  0  0  0
   -2.3586   -3.0741    1.8786 O   0  0  0  0  0  0  0  0  0  0  0  0
   -3.2348   -4.1947    1.7674 C   0  0  0  0  0  0  0  0  0  0  0  0
   -1.8726    1.8071    1.2443 C   0  0  0  0  0  0  0  0  0  0  0  0
   -2.0439    2.8610    0.1653 C   0  0  0  0  0  0  0  0  0  0  0  0
   -0.6848    3.2350   -0.3580 C   0  0  0  0  0  0  0  0  0  0  0  0
   -0.4224    4.5592   -0.7470 C   0  0  0  0  0  0  0  0  0  0  0  0
    0.8385    4.8529   -1.2096 C   0  0  0  0  0  0  0  0  0  0  0  0
    1.2740    6.0726   -1.6162 O   0  0  0  0  0  0  0  0  0  0  0  0
    2.6401    5.7724   -1.9763 C   0  0  0  0  0  0  0  0  0  0  0  0
    2.9867    4.3844   -1.7690 O   0  0  0  0  0  0  0  0  0  0  0  0
    1.8114    3.8916   -1.2970 C   0  0  0  0  0  0  0  0  0  0  0  0
    1.5794    2.5781   -0.9374 C   0  0  0  0  0  0  0  0  0  0  0  0
    0.3023    2.2140   -0.4669 C   0  0  0  0  0  0  0  0  0  0  0  0
    0.8842   -6.4525    1.1232 H   0  0  0  0  0  0  0  0  0  0  0  0
   -0.5913   -7.4168    1.2587 H   0  0  0  0  0  0  0  0  0  0  0  0
   -0.1736   -6.7322   -0.3164 H   0  0  0  0  0  0  0  0  0  0  0  0
    1.1521   -4.8450   -0.5808 H   0  0  0  0  0  0  0  0  0  0  0  0
    1.8167   -2.6336   -1.2851 H   0  0  0  0  0  0  0  0  0  0  0  0
    1.5058   -0.1912   -1.2327 H   0  0  0  0  0  0  0  0  0  0  0  0
   -2.3695   -0.6541    1.7483 H   0  0  0  0  0  0  0  0  0  0  0  0
   -3.3433   -4.5378    0.7328 H   0  0  0  0  0  0  0  0  0  0  0  0
   -4.2232   -3.8715    2.1092 H   0  0  0  0  0  0  0  0  0  0  0  0
   -2.9105   -5.0012    2.4310 H   0  0  0  0  0  0  0  0  0  0  0  0
   -2.8534    1.4689    1.5940 H   0  0  0  0  0  0  0  0  0  0  0  0
   -1.2949    2.1725    2.1022 H   0  0  0  0  0  0  0  0  0  0  0  0
   -2.5538    3.7334    0.5886 H   0  0  0  0  0  0  0  0  0  0  0  0
   -2.6507    2.4768   -0.6629 H   0  0  0  0  0  0  0  0  0  0  0  0
   -1.1741    5.3409   -0.6865 H   0  0  0  0  0  0  0  0  0  0  0  0
    3.3085    6.3954   -1.3712 H   0  0  0  0  0  0  0  0  0  0  0  0
    2.7872    6.0171   -3.0345 H   0  0  0  0  0  0  0  0  0  0  0  0
    2.3986    1.8712   -1.0266 H   0  0  0  0  0  0  0  0  0  0  0  0
  1  2  1  0
  2  3  1  0
  3  4  2  0
  4  5  1  0
  5  6  2  0
  6  7  1  0
  7  8  2  0
  8  9  1  0
  9 10  2  0
 10 11  1  0
 11 12  2  0
 12 13  1  0
 13 14  1  0
  9 15  1  0
 15 16  1  0
 16 17  1  0
 17 18  1  0
 18 19  2  0
 19 20  1  0
 20 21  1  0
 21 22  1  0
 22 23  1  0
 23 24  2  0
 24 25  1  0
 12  3  1  0
 25 17  2  0
 11  6  1  0
 23 19  1  0
 25  8  1  0
  1 26  1  0
  1 27  1  0
  1 28  1  0
  4 29  1  0
  5 30  1  0
  7 31  1  0
 10 32  1  0
 14 33  1  0
 14 34  1  0
 14 35  1  0
 15 36  1  0
 15 37  1  0
 16 38  1  0
 16 39  1  0
 18 40  1  0
 21 41  1  0
 21 42  1  0
 24 43  1  0
M  CHG  1   9   1
M  END
>  <clase>  (40) 
Alcaloide isoquinolínico

>  <carga>  (40) 
1

>  <InChIKey>  (40) 
YBHILYKTIRIUTE-UHFFFAOYSA-N

>  <estado_ionico>  (40) 
catión cuaternario

>  <parte_planta>  (40) 
tallo

$$$$
