Delfinidin-3-glucósido
     RDKit          3D

 54 57  0  0  0  0  0  0  0  0999 V2000
   -3.6799    3.8615    4.0378 O   0  0  0  0  0  0  0  0  0  0  0  0
   -3.1889    3.0195    3.0891 C   0  0  0  0  0  0  0  0  0  0  0  0
   -3.6975    2.9955    1.7967 C   0  0  0  0  0  0  0  0  0  0  0  0
   -3.1453    2.1066    0.8737 C   0  0  0  0  0  0  0  0  0  0  0  0
   -3.6230    2.0688   -0.4078 O   0  0  0  0  0  0  0  0  0  0  0  0
   -2.0890    1.2391    1.2214 C   0  0  0  0  0  0  0  0  0  0  0  0
   -1.5073    0.3304    0.3256 C   0  0  0  0  0  0  0  0  0  0  0  0
   -0.4401   -0.4772    0.7100 C   0  0  0  0  0  0  0  0  0  0  0  0
    0.1042   -1.4197   -0.1250 O   0  0  0  0  0  0  0  0  0  0  0  0
    0.1932   -1.1120   -1.5319 C   0  0  2  0  0  0  0  0  0  0  0  0
   -1.0200   -1.4360   -2.1944 O   0  0  0  0  0  0  0  0  0  0  0  0
   -1.0188   -1.0167   -3.5747 C   0  0  2  0  0  0  0  0  0  0  0  0
   -2.0935   -1.8213   -4.3145 C   0  0  0  0  0  0  0  0  0  0  0  0
   -2.2784   -1.2938   -5.6228 O   0  0  0  0  0  0  0  0  0  0  0  0
    0.3704   -1.1410   -4.2542 C   0  0  1  0  0  0  0  0  0  0  0  0
    1.0945    0.0961   -4.0767 O   0  0  0  0  0  0  0  0  0  0  0  0
    1.2111   -2.2427   -3.5999 C   0  0  2  0  0  0  0  0  0  0  0  0
    0.6063   -3.5152   -3.8235 O   0  0  0  0  0  0  0  0  0  0  0  0
    1.3653   -1.9612   -2.0921 C   0  0  1  0  0  0  0  0  0  0  0  0
    2.6052   -1.2722   -1.8231 O   0  0  0  0  0  0  0  0  0  0  0  0
    0.0550   -0.4074    2.0276 C   0  0  0  0  0  0  0  0  0  0  0  0
   -0.5702    0.4452    2.9885 O   0  0  0  0  0  0  0  0  0  0  0  0
   -1.6086    1.2941    2.5370 C   0  0  0  0  0  0  0  0  0  0  0  0
   -2.1519    2.1764    3.4642 C   0  0  0  0  0  0  0  0  0  0  0  0
    1.1995   -1.1608    2.5726 C   0  0  0  0  0  0  0  0  0  0  0  0
    2.3398   -1.4986    1.8078 C   0  0  0  0  0  0  0  0  0  0  0  0
    3.3937   -2.2118    2.3774 C   0  0  0  0  0  0  0  0  0  0  0  0
    4.4990   -2.5637    1.6566 O   0  0  0  0  0  0  0  0  0  0  0  0
    3.3447   -2.5827    3.7126 C   0  0  0  0  0  0  0  0  0  0  0  0
    4.3700   -3.2785    4.2872 O   0  0  0  0  0  0  0  0  0  0  0  0
    2.2468   -2.2414    4.4850 C   0  0  0  0  0  0  0  0  0  0  0  0
    2.1922   -2.5940    5.8003 O   0  0  0  0  0  0  0  0  0  0  0  0
    1.1850   -1.5348    3.9322 C   0  0  0  0  0  0  0  0  0  0  0  0
   -4.4105    4.4025    3.6874 H   0  0  0  0  0  0  0  0  0  0  0  0
   -4.5094    3.6599    1.5124 H   0  0  0  0  0  0  0  0  0  0  0  0
   -4.3713    2.6847   -0.5185 H   0  0  0  0  0  0  0  0  0  0  0  0
   -1.9248    0.2549   -0.6780 H   0  0  0  0  0  0  0  0  0  0  0  0
    0.4164   -0.0409   -1.6363 H   0  0  0  0  0  0  0  0  0  0  0  0
   -1.3170    0.0400   -3.5860 H   0  0  0  0  0  0  0  0  0  0  0  0
   -3.0462   -1.7615   -3.7769 H   0  0  0  0  0  0  0  0  0  0  0  0
   -1.8267   -2.8799   -4.3868 H   0  0  0  0  0  0  0  0  0  0  0  0
   -2.9336   -1.8629   -6.0672 H   0  0  0  0  0  0  0  0  0  0  0  0
    0.2774   -1.3147   -5.3317 H   0  0  0  0  0  0  0  0  0  0  0  0
    0.7676    0.7001   -4.7740 H   0  0  0  0  0  0  0  0  0  0  0  0
    2.2011   -2.2622   -4.0723 H   0  0  0  0  0  0  0  0  0  0  0  0
    1.2670   -4.2006   -3.6117 H   0  0  0  0  0  0  0  0  0  0  0  0
    1.4253   -2.9107   -1.5468 H   0  0  0  0  0  0  0  0  0  0  0  0
    2.6844   -0.5722   -2.5065 H   0  0  0  0  0  0  0  0  0  0  0  0
   -1.7595    2.1910    4.4759 H   0  0  0  0  0  0  0  0  0  0  0  0
    2.4231   -1.1951    0.7681 H   0  0  0  0  0  0  0  0  0  0  0  0
    4.3910   -2.2802    0.7301 H   0  0  0  0  0  0  0  0  0  0  0  0
    5.0278   -3.3997    3.5712 H   0  0  0  0  0  0  0  0  0  0  0  0
    3.0299   -3.0731    5.9726 H   0  0  0  0  0  0  0  0  0  0  0  0
    0.3430   -1.2772    4.5739 H   0  0  0  0  0  0  0  0  0  0  0  0
  1  2  1  0
  2  3  2  0
  3  4  1  0
  4  5  1  0
  4  6  2  0
  6  7  1  0
  7  8  2  0
  8  9  1  0
  9 10  1  0
 10 11  1  0
 11 12  1  0
 12 13  1  0
 13 14  1  0
 12 15  1  0
 15 16  1  0
 15 17  1  0
 17 18  1  0
 17 19  1  0
 19 20  1  0
  8 21  1  0
 21 22  2  0
 22 23  1  0
 23 24  2  0
 21 25  1  0
 25 26  1  0
 26 27  2  0
 27 28  1  0
 27 29  1  0
 29 30  1  0
 29 31  2  0
 31 32  1  0
 31 33  1  0
 19 10  1  0
 33 25  2  0
 24  2  1  0
 23  6  1  0
  1 34  1  0
  3 35  1  0
  5 36  1  0
  7 37  1  0
 10 38  1  1
 12 39  1  1
 13 40  1  0
 13 41  1  0
 14 42  1  0
 15 43  1  6
 16 44  1  0
 17 45  1  6
 18 46  1  0
 19 47  1  1
 20 48  1  0
 24 49  1  0
 26 50  1  0
 28 51  1  0
 30 52  1  0
 32 53  1  0
 33 54  1  0
M  CHG  1  22   1
M  END
>  <clase>  (1) 
Antocianina

>  <carga>  (1) 
1

>  <InChIKey>  (1) 
XENHPQQLDPAYIJ-PEVLUNPASA-O

>  <parte_planta>  (1) 
fruto

$$$$
Delfinidin-3-rutinosido
     RDKit          3D

 74 78  0  0  0  0  0  0  0  0999 V2000
   -0.3365    1.9932    6.2062 O   0  0  0  0  0  0  0  0  0  0  0  0
    0.0947    1.1553    5.2259 C   0  0  0  0  0  0  0  0  0  0  0  0
    1.2886    1.4734    4.5902 C   0  0  0  0  0  0  0  0  0  0  0  0
    1.7824    0.6435    3.5856 C   0  0  0  0  0  0  0  0  0  0  0  0
    2.9539    1.0317    3.0004 O   0  0  0  0  0  0  0  0  0  0  0  0
    1.0810   -0.5036    3.1768 C   0  0  0  0  0  0  0  0  0  0  0  0
    1.4981   -1.3463    2.1406 C   0  0  0  0  0  0  0  0  0  0  0  0
    0.7452   -2.4609    1.7778 C   0  0  0  0  0  0  0  0  0  0  0  0
    1.1936   -3.2640    0.7613 O   0  0  0  0  0  0  0  0  0  0  0  0
    1.2267   -2.6717   -0.5652 C   0  0  2  0  0  0  0  0  0  0  0  0
    2.3703   -1.8235   -0.7044 O   0  0  0  0  0  0  0  0  0  0  0  0
    2.3769   -0.9646   -1.8645 C   0  0  2  0  0  0  0  0  0  0  0  0
    2.1978    0.4907   -1.4043 C   0  0  0  0  0  0  0  0  0  0  0  0
    2.2230    1.3649   -2.5257 O   0  0  0  0  0  0  0  0  0  0  0  0
    2.1169    2.7408   -2.1322 C   0  0  2  0  0  0  0  0  0  0  0  0
    0.8224    3.0002   -1.5679 O   0  0  0  0  0  0  0  0  0  0  0  0
   -0.1705    3.2373   -2.5668 C   0  0  1  0  0  0  0  0  0  0  0  0
   -1.5324    3.2534   -1.8837 C   0  0  0  0  0  0  0  0  0  0  0  0
    0.1006    4.5661   -3.2999 C   0  0  2  0  0  0  0  0  0  0  0  0
   -0.3288    4.4571   -4.6683 O   0  0  0  0  0  0  0  0  0  0  0  0
    1.5982    4.9092   -3.2870 C   0  0  2  0  0  0  0  0  0  0  0  0
    1.9343    5.7545   -4.3980 O   0  0  0  0  0  0  0  0  0  0  0  0
    2.4389    3.6368   -3.3509 C   0  0  1  0  0  0  0  0  0  0  0  0
    3.8338    3.9810   -3.3733 O   0  0  0  0  0  0  0  0  0  0  0  0
    1.3876   -1.3781   -2.9768 C   0  0  1  0  0  0  0  0  0  0  0  0
    1.8327   -2.6289   -3.5311 O   0  0  0  0  0  0  0  0  0  0  0  0
   -0.0415   -1.6090   -2.4550 C   0  0  2  0  0  0  0  0  0  0  0  0
   -0.8761   -0.4627   -2.6618 O   0  0  0  0  0  0  0  0  0  0  0  0
   -0.0718   -1.9361   -0.9556 C   0  0  1  0  0  0  0  0  0  0  0  0
   -1.2444   -2.6877   -0.6173 O   0  0  0  0  0  0  0  0  0  0  0  0
   -0.4205   -2.8051    2.4903 C   0  0  0  0  0  0  0  0  0  0  0  0
   -0.9145   -1.9159    3.5000 O   0  0  0  0  0  0  0  0  0  0  0  0
   -0.1239   -0.7914    3.8407 C   0  0  0  0  0  0  0  0  0  0  0  0
   -0.6158    0.0249    4.8603 C   0  0  0  0  0  0  0  0  0  0  0  0
   -1.2598   -4.0066    2.3152 C   0  0  0  0  0  0  0  0  0  0  0  0
   -2.6188   -3.9352    2.6938 C   0  0  0  0  0  0  0  0  0  0  0  0
   -3.4573   -5.0342    2.5583 C   0  0  0  0  0  0  0  0  0  0  0  0
   -4.7637   -4.9202    2.9293 O   0  0  0  0  0  0  0  0  0  0  0  0
   -2.9725   -6.2282    2.0551 C   0  0  0  0  0  0  0  0  0  0  0  0
   -3.8223   -7.2909    1.9350 O   0  0  0  0  0  0  0  0  0  0  0  0
   -1.6392   -6.3340    1.6863 C   0  0  0  0  0  0  0  0  0  0  0  0
   -1.2146   -7.5394    1.2038 O   0  0  0  0  0  0  0  0  0  0  0  0
   -0.7807   -5.2407    1.8173 C   0  0  0  0  0  0  0  0  0  0  0  0
   -1.1818    1.7010    6.5904 H   0  0  0  0  0  0  0  0  0  0  0  0
    1.8369    2.3694    4.8799 H   0  0  0  0  0  0  0  0  0  0  0  0
    3.5718    0.2819    2.9353 H   0  0  0  0  0  0  0  0  0  0  0  0
    2.4253   -1.1359    1.6098 H   0  0  0  0  0  0  0  0  0  0  0  0
    1.3638   -3.5375   -1.2228 H   0  0  0  0  0  0  0  0  0  0  0  0
    3.3888   -1.0497   -2.2811 H   0  0  0  0  0  0  0  0  0  0  0  0
    1.2600    0.6112   -0.8538 H   0  0  0  0  0  0  0  0  0  0  0  0
    3.0088    0.7449   -0.7100 H   0  0  0  0  0  0  0  0  0  0  0  0
    2.8566    2.9318   -1.3448 H   0  0  0  0  0  0  0  0  0  0  0  0
   -0.1711    2.3997   -3.2772 H   0  0  0  0  0  0  0  0  0  0  0  0
   -1.5778    4.0350   -1.1173 H   0  0  0  0  0  0  0  0  0  0  0  0
   -2.3387    3.4184   -2.6045 H   0  0  0  0  0  0  0  0  0  0  0  0
   -1.7113    2.3020   -1.3708 H   0  0  0  0  0  0  0  0  0  0  0  0
   -0.4499    5.4051   -2.8585 H   0  0  0  0  0  0  0  0  0  0  0  0
   -1.3029    4.5076   -4.6735 H   0  0  0  0  0  0  0  0  0  0  0  0
    1.8549    5.4646   -2.3769 H   0  0  0  0  0  0  0  0  0  0  0  0
    1.2854    5.5297   -5.0989 H   0  0  0  0  0  0  0  0  0  0  0  0
    2.2505    3.1015   -4.2897 H   0  0  0  0  0  0  0  0  0  0  0  0
    3.8979    4.7499   -3.9775 H   0  0  0  0  0  0  0  0  0  0  0  0
    1.3850   -0.6536   -3.7982 H   0  0  0  0  0  0  0  0  0  0  0  0
    2.6588   -2.4587   -4.0230 H   0  0  0  0  0  0  0  0  0  0  0  0
   -0.5155   -2.4289   -3.0097 H   0  0  0  0  0  0  0  0  0  0  0  0
   -0.9438   -0.3265   -3.6266 H   0  0  0  0  0  0  0  0  0  0  0  0
   -0.1587   -1.0057   -0.3837 H   0  0  0  0  0  0  0  0  0  0  0  0
   -1.9857   -2.2818   -1.1125 H   0  0  0  0  0  0  0  0  0  0  0  0
   -1.5519   -0.2461    5.3350 H   0  0  0  0  0  0  0  0  0  0  0  0
   -3.0376   -3.0141    3.0976 H   0  0  0  0  0  0  0  0  0  0  0  0
   -5.1572   -5.8005    2.7518 H   0  0  0  0  0  0  0  0  0  0  0  0
   -3.2729   -8.0154    1.5700 H   0  0  0  0  0  0  0  0  0  0  0  0
   -0.2788   -7.4824    0.9439 H   0  0  0  0  0  0  0  0  0  0  0  0
    0.2625   -5.3635    1.5396 H   0  0  0  0  0  0  0  0  0  0  0  0
  1  2  1  0
  2  3  2  0
  3  4  1  0
  4  5  1  0
  4  6  2  0
  6  7  1  0
  7  8  2  0
  8  9  1  0
  9 10  1  0
 10 11  1  0
 11 12  1  0
 12 13  1  0
 13 14  1  0
 14 15  1  0
 15 16  1  0
 16 17  1  0
 17 18  1  0
 17 19  1  0
 19 20  1  0
 19 21  1  0
 21 22  1  0
 21 23  1  0
 23 24  1  0
 12 25  1  0
 25 26  1  0
 25 27  1  0
 27 28  1  0
 27 29  1  0
 29 30  1  0
  8 31  1  0
 31 32  2  0
 32 33  1  0
 33 34  2  0
 31 35  1  0
 35 36  1  0
 36 37  2  0
 37 38  1  0
 37 39  1  0
 39 40  1  0
 39 41  2  0
 41 42  1  0
 41 43  1  0
 29 10  1  0
 23 15  1  0
 43 35  2  0
 34  2  1  0
 33  6  1  0
  1 44  1  0
  3 45  1  0
  5 46  1  0
  7 47  1  0
 10 48  1  6
 12 49  1  6
 13 50  1  0
 13 51  1  0
 15 52  1  1
 17 53  1  6
 18 54  1  0
 18 55  1  0
 18 56  1  0
 19 57  1  1
 20 58  1  0
 21 59  1  1
 22 60  1  0
 23 61  1  6
 24 62  1  0
 25 63  1  6
 26 64  1  0
 27 65  1  6
 28 66  1  0
 29 67  1  1
 30 68  1  0
 34 69  1  0
 36 70  1  0
 38 71  1  0
 40 72  1  0
 42 73  1  0
 43 74  1  0
M  CHG  1  32   1
M  END
>  <clase>  (2) 
Antocianina

>  <carga>  (2) 
1

>  <InChIKey>  (2) 
PLKUTZNSKRWCCA-QXVQRCPNSA-O

>  <parte_planta>  (2) 
fruto

$$$$
Cianidín-3-glucósido
     RDKit          3D

 53 56  0  0  0  0  0  0  0  0999 V2000
   -4.9005   -0.1369    4.3959 O   0  0  0  0  0  0  0  0  0  0  0  0
   -4.0368   -0.4870    3.4050 C   0  0  0  0  0  0  0  0  0  0  0  0
   -3.7008   -1.8129    3.1609 C   0  0  0  0  0  0  0  0  0  0  0  0
   -2.8092   -2.0990    2.1275 C   0  0  0  0  0  0  0  0  0  0  0  0
   -2.4542   -3.3937    1.8651 O   0  0  0  0  0  0  0  0  0  0  0  0
   -2.2447   -1.0784    1.3356 C   0  0  0  0  0  0  0  0  0  0  0  0
   -1.3348   -1.3220    0.3010 C   0  0  0  0  0  0  0  0  0  0  0  0
   -0.7454   -0.2766   -0.4067 C   0  0  0  0  0  0  0  0  0  0  0  0
    0.1350   -0.5319   -1.4252 O   0  0  0  0  0  0  0  0  0  0  0  0
    1.2099   -1.4744   -1.2090 C   0  0  2  0  0  0  0  0  0  0  0  0
    0.7612   -2.8212   -1.3726 O   0  0  0  0  0  0  0  0  0  0  0  0
    1.8424   -3.7772   -1.3801 C   0  0  2  0  0  0  0  0  0  0  0  0
    1.2183   -5.1694   -1.5502 C   0  0  0  0  0  0  0  0  0  0  0  0
    0.2425   -5.4001   -0.5344 O   0  0  0  0  0  0  0  0  0  0  0  0
    2.6857   -3.6941   -0.0911 C   0  0  1  0  0  0  0  0  0  0  0  0
    3.8470   -4.5277   -0.1422 O   0  0  0  0  0  0  0  0  0  0  0  0
    3.1416   -2.2538    0.1646 C   0  0  2  0  0  0  0  0  0  0  0  0
    3.7728   -2.1425    1.4471 O   0  0  0  0  0  0  0  0  0  0  0  0
    1.9511   -1.2988    0.1344 C   0  0  1  0  0  0  0  0  0  0  0  0
    2.3884    0.0503    0.3253 O   0  0  0  0  0  0  0  0  0  0  0  0
   -1.1272    1.0570   -0.1471 C   0  0  0  0  0  0  0  0  0  0  0  0
   -2.1415    1.3273    0.8315 O   0  0  0  0  0  0  0  0  0  0  0  0
   -2.6141    0.2435    1.6095 C   0  0  0  0  0  0  0  0  0  0  0  0
   -3.5030    0.5394    2.6368 C   0  0  0  0  0  0  0  0  0  0  0  0
   -0.6668    2.2790   -0.8398 C   0  0  0  0  0  0  0  0  0  0  0  0
   -1.5211    3.4070   -0.8720 C   0  0  0  0  0  0  0  0  0  0  0  0
   -1.1492    4.5999   -1.5024 C   0  0  0  0  0  0  0  0  0  0  0  0
    0.0936    4.6877   -2.1037 C   0  0  0  0  0  0  0  0  0  0  0  0
    0.4697    5.8677   -2.6695 O   0  0  0  0  0  0  0  0  0  0  0  0
    0.9455    3.5928   -2.1043 C   0  0  0  0  0  0  0  0  0  0  0  0
    2.1445    3.6382   -2.7534 O   0  0  0  0  0  0  0  0  0  0  0  0
    0.5869    2.4082   -1.4642 C   0  0  0  0  0  0  0  0  0  0  0  0
   -5.2235   -0.9209    4.8761 H   0  0  0  0  0  0  0  0  0  0  0  0
   -4.1259   -2.6099    3.7655 H   0  0  0  0  0  0  0  0  0  0  0  0
   -2.8916   -4.0099    2.4823 H   0  0  0  0  0  0  0  0  0  0  0  0
   -1.0897   -2.3549    0.0595 H   0  0  0  0  0  0  0  0  0  0  0  0
    1.9108   -1.2531   -2.0243 H   0  0  0  0  0  0  0  0  0  0  0  0
    2.4786   -3.5859   -2.2540 H   0  0  0  0  0  0  0  0  0  0  0  0
    1.9726   -5.9598   -1.4976 H   0  0  0  0  0  0  0  0  0  0  0  0
    0.7064   -5.2437   -2.5156 H   0  0  0  0  0  0  0  0  0  0  0  0
   -0.4787   -4.7680   -0.7043 H   0  0  0  0  0  0  0  0  0  0  0  0
    2.0973   -4.0282    0.7720 H   0  0  0  0  0  0  0  0  0  0  0  0
    4.3622   -4.3329   -0.9454 H   0  0  0  0  0  0  0  0  0  0  0  0
    3.9000   -1.9499   -0.5673 H   0  0  0  0  0  0  0  0  0  0  0  0
    4.3352   -2.9391    1.5484 H   0  0  0  0  0  0  0  0  0  0  0  0
    1.2978   -1.5302    0.9827 H   0  0  0  0  0  0  0  0  0  0  0  0
    3.0881    0.0018    1.0134 H   0  0  0  0  0  0  0  0  0  0  0  0
   -3.7760    1.5731    2.8215 H   0  0  0  0  0  0  0  0  0  0  0  0
   -2.5002    3.3666   -0.3920 H   0  0  0  0  0  0  0  0  0  0  0  0
   -1.8202    5.4554   -1.5064 H   0  0  0  0  0  0  0  0  0  0  0  0
    1.3868    6.0410   -2.3866 H   0  0  0  0  0  0  0  0  0  0  0  0
    2.0495    4.2818   -3.4813 H   0  0  0  0  0  0  0  0  0  0  0  0
    1.3151    1.6023   -1.4690 H   0  0  0  0  0  0  0  0  0  0  0  0
  1  2  1  0
  2  3  2  0
  3  4  1  0
  4  5  1  0
  4  6  2  0
  6  7  1  0
  7  8  2  0
  8  9  1  0
  9 10  1  0
 10 11  1  0
 11 12  1  0
 12 13  1  0
 13 14  1  0
 12 15  1  0
 15 16  1  0
 15 17  1  0
 17 18  1  0
 17 19  1  0
 19 20  1  0
  8 21  1  0
 21 22  2  0
 22 23  1  0
 23 24  2  0
 21 25  1  0
 25 26  1  0
 26 27  2  0
 27 28  1  0
 28 29  1  0
 28 30  2  0
 30 31  1  0
 30 32  1  0
 19 10  1  0
 32 25  2  0
 24  2  1  0
 23  6  1  0
  1 33  1  0
  3 34  1  0
  5 35  1  0
  7 36  1  0
 10 37  1  6
 12 38  1  6
 13 39  1  0
 13 40  1  0
 14 41  1  0
 15 42  1  1
 16 43  1  0
 17 44  1  6
 18 45  1  0
 19 46  1  1
 20 47  1  0
 24 48  1  0
 26 49  1  0
 27 50  1  0
 29 51  1  0
 31 52  1  0
 32 53  1  0
M  CHG  1  22   1
M  END
>  <clase>  (3) 
Antocianina

>  <carga>  (3) 
1

>  <InChIKey>  (3) 
RKWHWFONKJEUEF-GQUPQBGVSA-O

>  <parte_planta>  (3) 
fruto

$$$$
Cianidín-3-rutinosido
     RDKit          3D

 73 77  0  0  0  0  0  0  0  0999 V2000
    0.0823    2.7070    4.9803 O   0  0  0  0  0  0  0  0  0  0  0  0
    0.6428    1.8232    4.1107 C   0  0  0  0  0  0  0  0  0  0  0  0
    1.9348    1.9892    3.6286 C   0  0  0  0  0  0  0  0  0  0  0  0
    2.4466    1.0443    2.7386 C   0  0  0  0  0  0  0  0  0  0  0  0
    3.7124    1.1934    2.2402 O   0  0  0  0  0  0  0  0  0  0  0  0
    1.6849   -0.0671    2.3214 C   0  0  0  0  0  0  0  0  0  0  0  0
    2.1504   -1.0326    1.4225 C   0  0  0  0  0  0  0  0  0  0  0  0
    1.3503   -2.1056    1.0374 C   0  0  0  0  0  0  0  0  0  0  0  0
    1.8435   -3.0056    0.1224 O   0  0  0  0  0  0  0  0  0  0  0  0
    1.9614   -2.4949   -1.2405 C   0  0  2  0  0  0  0  0  0  0  0  0
    2.9891   -1.5111   -1.3128 O   0  0  0  0  0  0  0  0  0  0  0  0
    2.9699   -0.6110   -2.4324 C   0  0  2  0  0  0  0  0  0  0  0  0
    2.6184    0.7979   -1.9219 C   0  0  0  0  0  0  0  0  0  0  0  0
    1.2817    0.8267   -1.4255 O   0  0  0  0  0  0  0  0  0  0  0  0
    0.9572    2.0217   -0.7145 C   0  0  2  0  0  0  0  0  0  0  0  0
   -0.1536    1.7382    0.1603 O   0  0  0  0  0  0  0  0  0  0  0  0
   -1.3834    1.5124   -0.5434 C   0  0  1  0  0  0  0  0  0  0  0  0
   -2.4540    1.2172    0.5036 C   0  0  0  0  0  0  0  0  0  0  0  0
   -1.7744    2.7152   -1.4194 C   0  0  2  0  0  0  0  0  0  0  0  0
   -2.9295    2.4223   -2.2138 O   0  0  0  0  0  0  0  0  0  0  0  0
   -0.6339    3.0600   -2.3852 C   0  0  2  0  0  0  0  0  0  0  0  0
   -0.5124    2.0255   -3.3761 O   0  0  0  0  0  0  0  0  0  0  0  0
    0.6835    3.2382   -1.6324 C   0  0  1  0  0  0  0  0  0  0  0  0
    0.6395    4.4343   -0.8413 O   0  0  0  0  0  0  0  0  0  0  0  0
    2.1190   -1.0624   -3.6347 C   0  0  1  0  0  0  0  0  0  0  0  0
    2.8585   -2.1127   -4.2858 O   0  0  0  0  0  0  0  0  0  0  0  0
    0.7411   -1.6289   -3.2688 C   0  0  2  0  0  0  0  0  0  0  0  0
   -0.3269   -0.7360   -3.6085 O   0  0  0  0  0  0  0  0  0  0  0  0
    0.6047   -2.0244   -1.7994 C   0  0  1  0  0  0  0  0  0  0  0  0
   -0.4052   -3.0351   -1.6542 O   0  0  0  0  0  0  0  0  0  0  0  0
    0.0902   -2.2999    1.6320 C   0  0  0  0  0  0  0  0  0  0  0  0
   -0.4562   -1.2810    2.4798 O   0  0  0  0  0  0  0  0  0  0  0  0
    0.3875   -0.1965    2.8307 C   0  0  0  0  0  0  0  0  0  0  0  0
   -0.1303    0.7389    3.7205 C   0  0  0  0  0  0  0  0  0  0  0  0
   -0.8100   -3.4602    1.4778 C   0  0  0  0  0  0  0  0  0  0  0  0
   -2.1938   -3.2811    1.7131 C   0  0  0  0  0  0  0  0  0  0  0  0
   -3.1022   -4.3365    1.5986 C   0  0  0  0  0  0  0  0  0  0  0  0
   -2.6351   -5.5911    1.2523 C   0  0  0  0  0  0  0  0  0  0  0  0
   -3.5220   -6.6201    1.1401 O   0  0  0  0  0  0  0  0  0  0  0  0
   -1.2808   -5.8048    1.0253 C   0  0  0  0  0  0  0  0  0  0  0  0
   -0.8917   -7.0719    0.6917 O   0  0  0  0  0  0  0  0  0  0  0  0
   -0.3677   -4.7579    1.1433 C   0  0  0  0  0  0  0  0  0  0  0  0
    0.6931    3.4404    5.1753 H   0  0  0  0  0  0  0  0  0  0  0  0
    2.5314    2.8436    3.9366 H   0  0  0  0  0  0  0  0  0  0  0  0
    4.1567    1.9579    2.6509 H   0  0  0  0  0  0  0  0  0  0  0  0
    3.1602   -0.9439    1.0204 H   0  0  0  0  0  0  0  0  0  0  0  0
    2.2973   -3.3628   -1.8204 H   0  0  0  0  0  0  0  0  0  0  0  0
    4.0151   -0.5618   -2.7642 H   0  0  0  0  0  0  0  0  0  0  0  0
    2.7272    1.5240   -2.7333 H   0  0  0  0  0  0  0  0  0  0  0  0
    3.3071    1.0606   -1.1101 H   0  0  0  0  0  0  0  0  0  0  0  0
    1.7829    2.2708   -0.0382 H   0  0  0  0  0  0  0  0  0  0  0  0
   -1.2861    0.6123   -1.1612 H   0  0  0  0  0  0  0  0  0  0  0  0
   -2.1609    0.3585    1.1158 H   0  0  0  0  0  0  0  0  0  0  0  0
   -3.4207    0.9919    0.0444 H   0  0  0  0  0  0  0  0  0  0  0  0
   -2.5762    2.0644    1.1874 H   0  0  0  0  0  0  0  0  0  0  0  0
   -1.9879    3.5910   -0.7943 H   0  0  0  0  0  0  0  0  0  0  0  0
   -3.7166    2.5229   -1.6473 H   0  0  0  0  0  0  0  0  0  0  0  0
   -0.8896    3.9796   -2.9251 H   0  0  0  0  0  0  0  0  0  0  0  0
   -1.4278    1.9163   -3.7218 H   0  0  0  0  0  0  0  0  0  0  0  0
    1.5037    3.3479   -2.3492 H   0  0  0  0  0  0  0  0  0  0  0  0
    0.6089    5.1932   -1.4535 H   0  0  0  0  0  0  0  0  0  0  0  0
    2.0352   -0.2448   -4.3599 H   0  0  0  0  0  0  0  0  0  0  0  0
    2.4675   -2.2469   -5.1702 H   0  0  0  0  0  0  0  0  0  0  0  0
    0.5502   -2.5199   -3.8806 H   0  0  0  0  0  0  0  0  0  0  0  0
   -0.0889    0.1767   -3.3325 H   0  0  0  0  0  0  0  0  0  0  0  0
    0.2218   -1.1864   -1.2174 H   0  0  0  0  0  0  0  0  0  0  0  0
   -1.1418   -2.7815   -2.2480 H   0  0  0  0  0  0  0  0  0  0  0  0
   -1.1394    0.6096    4.0964 H   0  0  0  0  0  0  0  0  0  0  0  0
   -2.5800   -2.3007    1.9939 H   0  0  0  0  0  0  0  0  0  0  0  0
   -4.1624   -4.1819    1.7801 H   0  0  0  0  0  0  0  0  0  0  0  0
   -2.9826   -7.3995    0.8974 H   0  0  0  0  0  0  0  0  0  0  0  0
    0.0578   -7.0762    0.4812 H   0  0  0  0  0  0  0  0  0  0  0  0
    0.6857   -4.9645    0.9783 H   0  0  0  0  0  0  0  0  0  0  0  0
  1  2  1  0
  2  3  2  0
  3  4  1  0
  4  5  1  0
  4  6  2  0
  6  7  1  0
  7  8  2  0
  8  9  1  0
  9 10  1  0
 10 11  1  0
 11 12  1  0
 12 13  1  0
 13 14  1  0
 14 15  1  0
 15 16  1  0
 16 17  1  0
 17 18  1  0
 17 19  1  0
 19 20  1  0
 19 21  1  0
 21 22  1  0
 21 23  1  0
 23 24  1  0
 12 25  1  0
 25 26  1  0
 25 27  1  0
 27 28  1  0
 27 29  1  0
 29 30  1  0
  8 31  1  0
 31 32  2  0
 32 33  1  0
 33 34  2  0
 31 35  1  0
 35 36  1  0
 36 37  2  0
 37 38  1  0
 38 39  1  0
 38 40  2  0
 40 41  1  0
 40 42  1  0
 29 10  1  0
 23 15  1  0
 42 35  2  0
 34  2  1  0
 33  6  1  0
  1 43  1  0
  3 44  1  0
  5 45  1  0
  7 46  1  0
 10 47  1  6
 12 48  1  6
 13 49  1  0
 13 50  1  0
 15 51  1  1
 17 52  1  6
 18 53  1  0
 18 54  1  0
 18 55  1  0
 19 56  1  1
 20 57  1  0
 21 58  1  6
 22 59  1  0
 23 60  1  6
 24 61  1  0
 25 62  1  6
 26 63  1  0
 27 64  1  6
 28 65  1  0
 29 66  1  1
 30 67  1  0
 34 68  1  0
 36 69  1  0
 37 70  1  0
 39 71  1  0
 41 72  1  0
 42 73  1  0
M  CHG  1  32   1
M  END
>  <clase>  (4) 
Antocianina

>  <carga>  (4) 
1

>  <InChIKey>  (4) 
USNPULRDBDVJAO-ACXVBFAASA-O

>  <parte_planta>  (4) 
fruto

$$$$
Petunidín-3-glucósido
     RDKit          3D

 57 60  0  0  0  0  0  0  0  0999 V2000
   -3.2455    0.0008    6.4418 O   0  0  0  0  0  0  0  0  0  0  0  0
   -2.7229   -0.6426    5.3641 C   0  0  0  0  0  0  0  0  0  0  0  0
   -2.5127   -2.0133    5.3605 C   0  0  0  0  0  0  0  0  0  0  0  0
   -1.9676   -2.6264    4.2287 C   0  0  0  0  0  0  0  0  0  0  0  0
   -1.8073   -3.9785    4.3397 O   0  0  0  0  0  0  0  0  0  0  0  0
   -1.6360   -1.8814    3.0766 C   0  0  0  0  0  0  0  0  0  0  0  0
   -1.1315   -2.4251    1.8863 C   0  0  0  0  0  0  0  0  0  0  0  0
   -0.9333   -1.6213    0.7650 C   0  0  0  0  0  0  0  0  0  0  0  0
   -0.5329   -2.2624   -0.3811 O   0  0  0  0  0  0  0  0  0  0  0  0
    0.9154   -2.2697   -0.4956 C   0  0  2  0  0  0  0  0  0  0  0  0
    1.3421   -0.9357   -0.7836 O   0  0  0  0  0  0  0  0  0  0  0  0
    2.5659   -0.8078   -1.5299 C   0  0  2  0  0  0  0  0  0  0  0  0
    2.2569   -0.4178   -2.9831 C   0  0  0  0  0  0  0  0  0  0  0  0
    3.4641   -0.2190   -3.7038 O   0  0  0  0  0  0  0  0  0  0  0  0
    3.4938   -2.0306   -1.4079 C   0  0  1  0  0  0  0  0  0  0  0  0
    3.8758   -2.1546   -0.0233 O   0  0  0  0  0  0  0  0  0  0  0  0
    2.7952   -3.3385   -1.8082 C   0  0  2  0  0  0  0  0  0  0  0  0
    3.0156   -3.6598   -3.1862 O   0  0  0  0  0  0  0  0  0  0  0  0
    1.2775   -3.2867   -1.5876 C   0  0  1  0  0  0  0  0  0  0  0  0
    0.8039   -4.5999   -1.2353 O   0  0  0  0  0  0  0  0  0  0  0  0
   -1.2268   -0.2476    0.7937 C   0  0  0  0  0  0  0  0  0  0  0  0
   -1.4956    0.3687    2.0574 O   0  0  0  0  0  0  0  0  0  0  0  0
   -1.8614   -0.4907    3.1289 C   0  0  0  0  0  0  0  0  0  0  0  0
   -2.3964    0.1225    4.2578 C   0  0  0  0  0  0  0  0  0  0  0  0
   -1.2435    0.6936   -0.3398 C   0  0  0  0  0  0  0  0  0  0  0  0
   -1.5251    0.2926   -1.6590 C   0  0  0  0  0  0  0  0  0  0  0  0
   -1.5146    1.2210   -2.6903 C   0  0  0  0  0  0  0  0  0  0  0  0
   -1.7681    0.7953   -3.9606 O   0  0  0  0  0  0  0  0  0  0  0  0
   -1.2485    2.5584   -2.4400 C   0  0  0  0  0  0  0  0  0  0  0  0
   -1.2546    3.4243   -3.5006 O   0  0  0  0  0  0  0  0  0  0  0  0
   -0.9873    3.0026   -1.1456 C   0  0  0  0  0  0  0  0  0  0  0  0
   -0.7474    4.3453   -1.0357 O   0  0  0  0  0  0  0  0  0  0  0  0
   -0.5044    4.8596    0.2690 C   0  0  0  0  0  0  0  0  0  0  0  0
   -0.9878    2.0695   -0.1037 C   0  0  0  0  0  0  0  0  0  0  0  0
   -3.4630   -0.6358    7.1484 H   0  0  0  0  0  0  0  0  0  0  0  0
   -2.7611   -2.6222    6.2285 H   0  0  0  0  0  0  0  0  0  0  0  0
   -1.3118   -4.3745    3.6051 H   0  0  0  0  0  0  0  0  0  0  0  0
   -0.9392   -3.4919    1.7846 H   0  0  0  0  0  0  0  0  0  0  0  0
    1.3427   -2.5947    0.4629 H   0  0  0  0  0  0  0  0  0  0  0  0
    3.0911    0.0398   -1.0710 H   0  0  0  0  0  0  0  0  0  0  0  0
    1.6565   -1.1741   -3.4951 H   0  0  0  0  0  0  0  0  0  0  0  0
    1.6802    0.5132   -3.0013 H   0  0  0  0  0  0  0  0  0  0  0  0
    3.2174    0.0577   -4.6055 H   0  0  0  0  0  0  0  0  0  0  0  0
    4.4140   -1.8938   -1.9863 H   0  0  0  0  0  0  0  0  0  0  0  0
    4.5839   -1.5024    0.1382 H   0  0  0  0  0  0  0  0  0  0  0  0
    3.2173   -4.1722   -1.2318 H   0  0  0  0  0  0  0  0  0  0  0  0
    3.9764   -3.7636   -3.3215 H   0  0  0  0  0  0  0  0  0  0  0  0
    0.7542   -3.0239   -2.5153 H   0  0  0  0  0  0  0  0  0  0  0  0
    1.0393   -5.1781   -1.9882 H   0  0  0  0  0  0  0  0  0  0  0  0
   -2.5437    1.1970    4.2608 H   0  0  0  0  0  0  0  0  0  0  0  0
   -1.7625   -0.7384   -1.9141 H   0  0  0  0  0  0  0  0  0  0  0  0
   -1.7526    1.6073   -4.5104 H   0  0  0  0  0  0  0  0  0  0  0  0
   -1.0667    4.3053   -3.1159 H   0  0  0  0  0  0  0  0  0  0  0  0
    0.4093    4.4311    0.6938 H   0  0  0  0  0  0  0  0  0  0  0  0
   -0.3591    5.9401    0.1795 H   0  0  0  0  0  0  0  0  0  0  0  0
   -1.3641    4.6920    0.9269 H   0  0  0  0  0  0  0  0  0  0  0  0
   -0.7843    2.3881    0.9170 H   0  0  0  0  0  0  0  0  0  0  0  0
  1  2  1  0
  2  3  2  0
  3  4  1  0
  4  5  1  0
  4  6  2  0
  6  7  1  0
  7  8  2  0
  8  9  1  0
  9 10  1  0
 10 11  1  0
 11 12  1  0
 12 13  1  0
 13 14  1  0
 12 15  1  0
 15 16  1  0
 15 17  1  0
 17 18  1  0
 17 19  1  0
 19 20  1  0
  8 21  1  0
 21 22  2  0
 22 23  1  0
 23 24  2  0
 21 25  1  0
 25 26  1  0
 26 27  2  0
 27 28  1  0
 27 29  1  0
 29 30  1  0
 29 31  2  0
 31 32  1  0
 32 33  1  0
 31 34  1  0
 19 10  1  0
 34 25  2  0
 24  2  1  0
 23  6  1  0
  1 35  1  0
  3 36  1  0
  5 37  1  0
  7 38  1  0
 10 39  1  1
 12 40  1  1
 13 41  1  0
 13 42  1  0
 14 43  1  0
 15 44  1  6
 16 45  1  0
 17 46  1  1
 18 47  1  0
 19 48  1  6
 20 49  1  0
 24 50  1  0
 26 51  1  0
 28 52  1  0
 30 53  1  0
 33 54  1  0
 33 55  1  0
 33 56  1  0
 34 57  1  0
M  CHG  1  22   1
M  END
>  <clase>  (5) 
Antocianina

>  <carga>  (5) 
1

>  <InChIKey>  (5) 
CCQDWIRWKWIUKK-QKYBYQKWSA-O

>  <parte_planta>  (5) 
fruto

$$$$
Petunidín-3-rutinosido
     RDKit          3D

 77 81  0  0  0  0  0  0  0  0999 V2000
    3.2383   -6.7665    3.7775 O   0  0  0  0  0  0  0  0  0  0  0  0
    2.5116   -6.0106    2.9132 C   0  0  0  0  0  0  0  0  0  0  0  0
    1.5198   -6.6533    2.1781 C   0  0  0  0  0  0  0  0  0  0  0  0
    0.7723   -5.9240    1.2528 C   0  0  0  0  0  0  0  0  0  0  0  0
   -0.1884   -6.5467    0.5058 O   0  0  0  0  0  0  0  0  0  0  0  0
    0.9912   -4.5478    1.0504 C   0  0  0  0  0  0  0  0  0  0  0  0
    0.2845   -3.7778    0.1194 C   0  0  0  0  0  0  0  0  0  0  0  0
    0.6025   -2.4319   -0.0846 C   0  0  0  0  0  0  0  0  0  0  0  0
   -0.1664   -1.6985   -0.9557 O   0  0  0  0  0  0  0  0  0  0  0  0
   -0.0039   -2.0884   -2.3380 C   0  0  2  0  0  0  0  0  0  0  0  0
    0.4568   -0.9848   -3.1199 O   0  0  0  0  0  0  0  0  0  0  0  0
   -0.4981   -0.0426   -3.6271 C   0  0  2  0  0  0  0  0  0  0  0  0
   -0.6490    1.1983   -2.7339 C   0  0  0  0  0  0  0  0  0  0  0  0
   -1.1519    0.8527   -1.4361 O   0  0  0  0  0  0  0  0  0  0  0  0
   -1.4815    2.0226   -0.6695 C   0  0  2  0  0  0  0  0  0  0  0  0
   -0.4032    2.9517   -0.6272 O   0  0  0  0  0  0  0  0  0  0  0  0
   -0.4162    3.8752    0.4767 C   0  0  1  0  0  0  0  0  0  0  0  0
    0.1928    5.1835   -0.0117 C   0  0  0  0  0  0  0  0  0  0  0  0
   -1.8123    4.0780    1.0877 C   0  0  2  0  0  0  0  0  0  0  0  0
   -1.7826    4.9935    2.1825 O   0  0  0  0  0  0  0  0  0  0  0  0
   -2.3904    2.7274    1.5547 C   0  0  2  0  0  0  0  0  0  0  0  0
   -2.0753    2.5250    2.9532 O   0  0  0  0  0  0  0  0  0  0  0  0
   -1.8316    1.5482    0.7488 C   0  0  1  0  0  0  0  0  0  0  0  0
   -2.7706    0.4635    0.7622 O   0  0  0  0  0  0  0  0  0  0  0  0
   -1.8545   -0.6524   -4.0026 C   0  0  1  0  0  0  0  0  0  0  0  0
   -2.3861   -0.0606   -5.1948 O   0  0  0  0  0  0  0  0  0  0  0  0
   -1.7129   -2.1555   -4.2005 C   0  0  2  0  0  0  0  0  0  0  0  0
   -2.9626   -2.7352   -4.5961 O   0  0  0  0  0  0  0  0  0  0  0  0
   -1.2857   -2.7655   -2.8694 C   0  0  1  0  0  0  0  0  0  0  0  0
   -1.0652   -4.1841   -3.0259 O   0  0  0  0  0  0  0  0  0  0  0  0
    1.5798   -1.8056    0.7051 C   0  0  0  0  0  0  0  0  0  0  0  0
    2.2276   -2.5348    1.7586 O   0  0  0  0  0  0  0  0  0  0  0  0
    1.9798   -3.9317    1.8289 C   0  0  0  0  0  0  0  0  0  0  0  0
    2.7404   -4.6538    2.7533 C   0  0  0  0  0  0  0  0  0  0  0  0
    2.0035   -0.4029    0.6359 C   0  0  0  0  0  0  0  0  0  0  0  0
    2.3544    0.2140   -0.5776 C   0  0  0  0  0  0  0  0  0  0  0  0
    2.8311    1.5198   -0.5870 C   0  0  0  0  0  0  0  0  0  0  0  0
    3.1716    2.0920   -1.7784 O   0  0  0  0  0  0  0  0  0  0  0  0
    2.9605    2.2338    0.5954 C   0  0  0  0  0  0  0  0  0  0  0  0
    3.4576    3.5110    0.5278 O   0  0  0  0  0  0  0  0  0  0  0  0
    2.5859    1.6665    1.8149 C   0  0  0  0  0  0  0  0  0  0  0  0
    2.7205    2.4858    2.9023 O   0  0  0  0  0  0  0  0  0  0  0  0
    1.9440    2.1527    4.0509 C   0  0  0  0  0  0  0  0  0  0  0  0
    2.1329    0.3441    1.8344 C   0  0  0  0  0  0  0  0  0  0  0  0
    3.9422   -6.2526    4.2180 H   0  0  0  0  0  0  0  0  0  0  0  0
    1.3455   -7.7200    2.3296 H   0  0  0  0  0  0  0  0  0  0  0  0
   -0.1681   -7.5071    0.6654 H   0  0  0  0  0  0  0  0  0  0  0  0
   -0.5206   -4.2473   -0.4499 H   0  0  0  0  0  0  0  0  0  0  0  0
    0.8187   -2.8110   -2.4151 H   0  0  0  0  0  0  0  0  0  0  0  0
   -0.0364    0.3348   -4.5496 H   0  0  0  0  0  0  0  0  0  0  0  0
   -1.3288    1.9111   -3.2041 H   0  0  0  0  0  0  0  0  0  0  0  0
    0.3306    1.6719   -2.6140 H   0  0  0  0  0  0  0  0  0  0  0  0
   -2.3512    2.4886   -1.1447 H   0  0  0  0  0  0  0  0  0  0  0  0
    0.2488    3.4721    1.2486 H   0  0  0  0  0  0  0  0  0  0  0  0
    0.3785    5.8687    0.8216 H   0  0  0  0  0  0  0  0  0  0  0  0
    1.1465    4.9970   -0.5224 H   0  0  0  0  0  0  0  0  0  0  0  0
   -0.4686    5.6689   -0.7384 H   0  0  0  0  0  0  0  0  0  0  0  0
   -2.4754    4.4863    0.3147 H   0  0  0  0  0  0  0  0  0  0  0  0
   -1.7866    4.4343    2.9867 H   0  0  0  0  0  0  0  0  0  0  0  0
   -3.4873    2.7661    1.4977 H   0  0  0  0  0  0  0  0  0  0  0  0
   -2.5860    1.7345    3.2156 H   0  0  0  0  0  0  0  0  0  0  0  0
   -0.9280    1.1574    1.2377 H   0  0  0  0  0  0  0  0  0  0  0  0
   -2.6627    0.0047   -0.0959 H   0  0  0  0  0  0  0  0  0  0  0  0
   -2.6017   -0.4599   -3.2246 H   0  0  0  0  0  0  0  0  0  0  0  0
   -1.7876   -0.2501   -5.9452 H   0  0  0  0  0  0  0  0  0  0  0  0
   -1.0033   -2.3952   -5.0006 H   0  0  0  0  0  0  0  0  0  0  0  0
   -3.4290   -2.0698   -5.1443 H   0  0  0  0  0  0  0  0  0  0  0  0
   -2.0980   -2.6806   -2.1311 H   0  0  0  0  0  0  0  0  0  0  0  0
   -1.5172   -4.4490   -3.8656 H   0  0  0  0  0  0  0  0  0  0  0  0
    3.5015   -4.1220    3.3162 H   0  0  0  0  0  0  0  0  0  0  0  0
    2.3056   -0.3123   -1.5295 H   0  0  0  0  0  0  0  0  0  0  0  0
    3.4474    3.0061   -1.5520 H   0  0  0  0  0  0  0  0  0  0  0  0
    3.4696    3.8394    1.4517 H   0  0  0  0  0  0  0  0  0  0  0  0
    0.9068    1.9066    3.7898 H   0  0  0  0  0  0  0  0  0  0  0  0
    2.4149    1.3304    4.5988 H   0  0  0  0  0  0  0  0  0  0  0  0
    1.9197    3.0285    4.7006 H   0  0  0  0  0  0  0  0  0  0  0  0
    1.8713   -0.1298    2.7812 H   0  0  0  0  0  0  0  0  0  0  0  0
  1  2  1  0
  2  3  2  0
  3  4  1  0
  4  5  1  0
  4  6  2  0
  6  7  1  0
  7  8  2  0
  8  9  1  0
  9 10  1  0
 10 11  1  0
 11 12  1  0
 12 13  1  0
 13 14  1  0
 14 15  1  0
 15 16  1  0
 16 17  1  0
 17 18  1  0
 17 19  1  0
 19 20  1  0
 19 21  1  0
 21 22  1  0
 21 23  1  0
 23 24  1  0
 12 25  1  0
 25 26  1  0
 25 27  1  0
 27 28  1  0
 27 29  1  0
 29 30  1  0
  8 31  1  0
 31 32  2  0
 32 33  1  0
 33 34  2  0
 31 35  1  0
 35 36  1  0
 36 37  2  0
 37 38  1  0
 37 39  1  0
 39 40  1  0
 39 41  2  0
 41 42  1  0
 42 43  1  0
 41 44  1  0
 29 10  1  0
 23 15  1  0
 44 35  2  0
 34  2  1  0
 33  6  1  0
  1 45  1  0
  3 46  1  0
  5 47  1  0
  7 48  1  0
 10 49  1  1
 12 50  1  6
 13 51  1  0
 13 52  1  0
 15 53  1  6
 17 54  1  1
 18 55  1  0
 18 56  1  0
 18 57  1  0
 19 58  1  6
 20 59  1  0
 21 60  1  1
 22 61  1  0
 23 62  1  1
 24 63  1  0
 25 64  1  1
 26 65  1  0
 27 66  1  6
 28 67  1  0
 29 68  1  1
 30 69  1  0
 34 70  1  0
 36 71  1  0
 38 72  1  0
 40 73  1  0
 43 74  1  0
 43 75  1  0
 43 76  1  0
 44 77  1  0
M  CHG  1  32   1
M  END
>  <clase>  (6) 
Antocianina

>  <carga>  (6) 
1

>  <InChIKey>  (6) 
IWTWNQZWPPSSQB-CBJDNGMYSA-O

>  <parte_planta>  (6) 
fruto

$$$$
Peonidín-3-glucósido
     RDKit          3D

 56 59  0  0  0  0  0  0  0  0999 V2000
   -4.0869   -3.1205    4.1545 O   0  0  0  0  0  0  0  0  0  0  0  0
   -2.9072   -2.8652    3.5264 C   0  0  0  0  0  0  0  0  0  0  0  0
   -2.0056   -3.9175    3.4132 C   0  0  0  0  0  0  0  0  0  0  0  0
   -0.7826   -3.7063    2.7803 C   0  0  0  0  0  0  0  0  0  0  0  0
    0.1115   -4.7339    2.6625 O   0  0  0  0  0  0  0  0  0  0  0  0
   -0.4419   -2.4483    2.2501 C   0  0  0  0  0  0  0  0  0  0  0  0
    0.7598   -2.1949    1.5838 C   0  0  0  0  0  0  0  0  0  0  0  0
    1.0135   -0.9458    1.0288 C   0  0  0  0  0  0  0  0  0  0  0  0
    2.1767   -0.8730    0.2995 O   0  0  0  0  0  0  0  0  0  0  0  0
    2.0142   -0.4713   -1.0853 C   0  0  2  0  0  0  0  0  0  0  0  0
    0.6466   -0.4255   -1.5083 O   0  0  0  0  0  0  0  0  0  0  0  0
    0.2022   -1.4826   -2.3704 C   0  0  2  0  0  0  0  0  0  0  0  0
   -1.3299   -1.5488   -2.2441 C   0  0  0  0  0  0  0  0  0  0  0  0
   -1.7330   -1.8417   -0.8961 O   0  0  0  0  0  0  0  0  0  0  0  0
    0.8585   -2.8297   -2.0450 C   0  0  1  0  0  0  0  0  0  0  0  0
    0.3724   -3.8874   -2.8793 O   0  0  0  0  0  0  0  0  0  0  0  0
    2.3897   -2.7532   -2.1616 C   0  0  2  0  0  0  0  0  0  0  0  0
    2.9705   -3.6348   -1.1929 O   0  0  0  0  0  0  0  0  0  0  0  0
    2.9363   -1.3325   -1.9759 C   0  0  1  0  0  0  0  0  0  0  0  0
    3.0459   -0.7148   -3.2691 O   0  0  0  0  0  0  0  0  0  0  0  0
    0.1195    0.1205    1.2327 C   0  0  0  0  0  0  0  0  0  0  0  0
   -1.1181   -0.0934    1.9220 O   0  0  0  0  0  0  0  0  0  0  0  0
   -1.3754   -1.4102    2.3821 C   0  0  0  0  0  0  0  0  0  0  0  0
   -2.6016   -1.6128    3.0181 C   0  0  0  0  0  0  0  0  0  0  0  0
    0.3541    1.5348    0.9018 C   0  0  0  0  0  0  0  0  0  0  0  0
    1.6070    2.1522    1.0884 C   0  0  0  0  0  0  0  0  0  0  0  0
    1.7933    3.4992    0.7789 C   0  0  0  0  0  0  0  0  0  0  0  0
    0.7256    4.2398    0.2935 C   0  0  0  0  0  0  0  0  0  0  0  0
    0.9428    5.5563   -0.0007 O   0  0  0  0  0  0  0  0  0  0  0  0
   -0.5376    3.6717    0.1128 C   0  0  0  0  0  0  0  0  0  0  0  0
   -1.4928    4.5284   -0.3647 O   0  0  0  0  0  0  0  0  0  0  0  0
   -2.7968    3.9984   -0.5716 C   0  0  0  0  0  0  0  0  0  0  0  0
   -0.7179    2.3231    0.4255 C   0  0  0  0  0  0  0  0  0  0  0  0
   -4.6391   -2.3219    4.2263 H   0  0  0  0  0  0  0  0  0  0  0  0
   -2.2716   -4.8902    3.8228 H   0  0  0  0  0  0  0  0  0  0  0  0
   -0.2464   -5.5451    3.0693 H   0  0  0  0  0  0  0  0  0  0  0  0
    1.4874   -2.9970    1.4457 H   0  0  0  0  0  0  0  0  0  0  0  0
    2.3744    0.5616   -1.1467 H   0  0  0  0  0  0  0  0  0  0  0  0
    0.4287   -1.2002   -3.4059 H   0  0  0  0  0  0  0  0  0  0  0  0
   -1.7465   -2.3130   -2.9081 H   0  0  0  0  0  0  0  0  0  0  0  0
   -1.7699   -0.5797   -2.5014 H   0  0  0  0  0  0  0  0  0  0  0  0
   -2.6661   -2.1200   -0.9716 H   0  0  0  0  0  0  0  0  0  0  0  0
    0.5977   -3.1255   -1.0249 H   0  0  0  0  0  0  0  0  0  0  0  0
    0.6144   -3.6999   -3.8050 H   0  0  0  0  0  0  0  0  0  0  0  0
    2.7090   -3.1343   -3.1397 H   0  0  0  0  0  0  0  0  0  0  0  0
    2.6360   -4.5319   -1.3907 H   0  0  0  0  0  0  0  0  0  0  0  0
    3.9393   -1.3629   -1.5332 H   0  0  0  0  0  0  0  0  0  0  0  0
    3.8775   -1.0289   -3.6727 H   0  0  0  0  0  0  0  0  0  0  0  0
   -3.2831   -0.7746    3.1016 H   0  0  0  0  0  0  0  0  0  0  0  0
    2.4580    1.5991    1.4847 H   0  0  0  0  0  0  0  0  0  0  0  0
    2.7612    3.9747    0.9191 H   0  0  0  0  0  0  0  0  0  0  0  0
    0.0858    5.9044   -0.3169 H   0  0  0  0  0  0  0  0  0  0  0  0
   -3.4288    4.8049   -0.9555 H   0  0  0  0  0  0  0  0  0  0  0  0
   -2.7827    3.1993   -1.3201 H   0  0  0  0  0  0  0  0  0  0  0  0
   -3.2338    3.6504    0.3701 H   0  0  0  0  0  0  0  0  0  0  0  0
   -1.6901    1.8513    0.3041 H   0  0  0  0  0  0  0  0  0  0  0  0
  1  2  1  0
  2  3  2  0
  3  4  1  0
  4  5  1  0
  4  6  2  0
  6  7  1  0
  7  8  2  0
  8  9  1  0
  9 10  1  0
 10 11  1  0
 11 12  1  0
 12 13  1  0
 13 14  1  0
 12 15  1  0
 15 16  1  0
 15 17  1  0
 17 18  1  0
 17 19  1  0
 19 20  1  0
  8 21  1  0
 21 22  2  0
 22 23  1  0
 23 24  2  0
 21 25  1  0
 25 26  1  0
 26 27  2  0
 27 28  1  0
 28 29  1  0
 28 30  2  0
 30 31  1  0
 31 32  1  0
 30 33  1  0
 19 10  1  0
 33 25  2  0
 24  2  1  0
 23  6  1  0
  1 34  1  0
  3 35  1  0
  5 36  1  0
  7 37  1  0
 10 38  1  1
 12 39  1  6
 13 40  1  0
 13 41  1  0
 14 42  1  0
 15 43  1  1
 16 44  1  0
 17 45  1  6
 18 46  1  0
 19 47  1  1
 20 48  1  0
 24 49  1  0
 26 50  1  0
 27 51  1  0
 29 52  1  0
 32 53  1  0
 32 54  1  0
 32 55  1  0
 33 56  1  0
M  CHG  1  22   1
M  END
>  <clase>  (7) 
Antocianina

>  <carga>  (7) 
1

>  <InChIKey>  (7) 
ZZWPMFROUHHAKY-OUUKCGNVSA-O

>  <parte_planta>  (7) 
fruto

$$$$
Peonidín-3-rutinosido
     RDKit          3D

 76 80  0  0  0  0  0  0  0  0999 V2000
    2.6956    3.7298    4.8174 O   0  0  0  0  0  0  0  0  0  0  0  0
    2.9488    2.6336    4.0523 C   0  0  0  0  0  0  0  0  0  0  0  0
    4.2155    2.3712    3.5450 C   0  0  0  0  0  0  0  0  0  0  0  0
    4.4042    1.2286    2.7671 C   0  0  0  0  0  0  0  0  0  0  0  0
    5.6373    0.9531    2.2428 O   0  0  0  0  0  0  0  0  0  0  0  0
    3.3425    0.3448    2.4853 C   0  0  0  0  0  0  0  0  0  0  0  0
    3.4702   -0.7861    1.6742 C   0  0  0  0  0  0  0  0  0  0  0  0
    2.3471   -1.5290    1.3066 C   0  0  0  0  0  0  0  0  0  0  0  0
    2.5252   -2.5350    0.3849 O   0  0  0  0  0  0  0  0  0  0  0  0
    2.8450   -2.0175   -0.9352 C   0  0  2  0  0  0  0  0  0  0  0  0
    2.0599   -0.8540   -1.2063 O   0  0  0  0  0  0  0  0  0  0  0  0
    2.3009   -0.3073   -2.5091 C   0  0  2  0  0  0  0  0  0  0  0  0
    1.4131    0.9398   -2.6745 C   0  0  0  0  0  0  0  0  0  0  0  0
    0.0427    0.6503   -2.9480 O   0  0  0  0  0  0  0  0  0  0  0  0
   -0.7542    0.2673   -1.8251 C   0  0  2  0  0  0  0  0  0  0  0  0
   -1.9896   -0.2676   -2.3297 O   0  0  0  0  0  0  0  0  0  0  0  0
   -2.9231    0.7520   -2.6950 C   0  0  1  0  0  0  0  0  0  0  0  0
   -4.0789    0.0867   -3.4318 C   0  0  0  0  0  0  0  0  0  0  0  0
   -3.4228    1.5004   -1.4427 C   0  0  2  0  0  0  0  0  0  0  0  0
   -3.5863    2.9002   -1.7269 O   0  0  0  0  0  0  0  0  0  0  0  0
   -2.4146    1.3714   -0.2950 C   0  0  2  0  0  0  0  0  0  0  0  0
   -2.5808    2.4252    0.6708 O   0  0  0  0  0  0  0  0  0  0  0  0
   -0.9824    1.4261   -0.8246 C   0  0  1  0  0  0  0  0  0  0  0  0
   -0.0776    1.3611    0.3069 O   0  0  0  0  0  0  0  0  0  0  0  0
    2.0787   -1.3424   -3.6371 C   0  0  1  0  0  0  0  0  0  0  0  0
    3.3370   -1.5155   -4.3184 O   0  0  0  0  0  0  0  0  0  0  0  0
    1.6475   -2.7122   -3.0864 C   0  0  2  0  0  0  0  0  0  0  0  0
    0.3151   -2.6942   -2.5817 O   0  0  0  0  0  0  0  0  0  0  0  0
    2.6141   -3.1502   -1.9718 C   0  0  1  0  0  0  0  0  0  0  0  0
    3.8793   -3.5483   -2.5316 O   0  0  0  0  0  0  0  0  0  0  0  0
    1.0795   -1.2421    1.8561 C   0  0  0  0  0  0  0  0  0  0  0  0
    0.9945   -0.2539    2.8992 O   0  0  0  0  0  0  0  0  0  0  0  0
    2.0854    0.6384    3.0262 C   0  0  0  0  0  0  0  0  0  0  0  0
    1.8873    1.7741    3.8038 C   0  0  0  0  0  0  0  0  0  0  0  0
   -0.2266   -1.8914    1.5897 C   0  0  0  0  0  0  0  0  0  0  0  0
   -0.4221   -2.9794    0.7209 C   0  0  0  0  0  0  0  0  0  0  0  0
   -1.6922   -3.5235    0.5040 C   0  0  0  0  0  0  0  0  0  0  0  0
   -2.7879   -2.9926    1.1632 C   0  0  0  0  0  0  0  0  0  0  0  0
   -4.0143   -3.5448    0.9261 O   0  0  0  0  0  0  0  0  0  0  0  0
   -2.6506   -1.9216    2.0429 C   0  0  0  0  0  0  0  0  0  0  0  0
   -3.8164   -1.4892    2.6158 O   0  0  0  0  0  0  0  0  0  0  0  0
   -3.7378   -0.3557    3.4734 C   0  0  0  0  0  0  0  0  0  0  0  0
   -1.3767   -1.3857    2.2515 C   0  0  0  0  0  0  0  0  0  0  0  0
    3.5036    4.2569    4.9543 H   0  0  0  0  0  0  0  0  0  0  0  0
    5.0415    3.0477    3.7483 H   0  0  0  0  0  0  0  0  0  0  0  0
    6.2946    1.6117    2.5345 H   0  0  0  0  0  0  0  0  0  0  0  0
    4.4466   -1.0463    1.2643 H   0  0  0  0  0  0  0  0  0  0  0  0
    3.9062   -1.7355   -0.9295 H   0  0  0  0  0  0  0  0  0  0  0  0
    3.3411    0.0449   -2.5151 H   0  0  0  0  0  0  0  0  0  0  0  0
    1.4991    1.5989   -1.8048 H   0  0  0  0  0  0  0  0  0  0  0  0
    1.7768    1.5042   -3.5406 H   0  0  0  0  0  0  0  0  0  0  0  0
   -0.2754   -0.5644   -1.3096 H   0  0  0  0  0  0  0  0  0  0  0  0
   -2.4419    1.4482   -3.3942 H   0  0  0  0  0  0  0  0  0  0  0  0
   -4.8290    0.8204   -3.7416 H   0  0  0  0  0  0  0  0  0  0  0  0
   -3.7116   -0.4351   -4.3221 H   0  0  0  0  0  0  0  0  0  0  0  0
   -4.5619   -0.6696   -2.8033 H   0  0  0  0  0  0  0  0  0  0  0  0
   -4.3969    1.1348   -1.0981 H   0  0  0  0  0  0  0  0  0  0  0  0
   -4.2903    2.9815   -2.3985 H   0  0  0  0  0  0  0  0  0  0  0  0
   -2.5704    0.4292    0.2383 H   0  0  0  0  0  0  0  0  0  0  0  0
   -3.0014    3.1581    0.1677 H   0  0  0  0  0  0  0  0  0  0  0  0
   -0.7885    2.3950   -1.3004 H   0  0  0  0  0  0  0  0  0  0  0  0
   -0.5068    1.9636    0.9543 H   0  0  0  0  0  0  0  0  0  0  0  0
    1.3610   -0.9732   -4.3773 H   0  0  0  0  0  0  0  0  0  0  0  0
    3.1357   -1.8206   -5.2259 H   0  0  0  0  0  0  0  0  0  0  0  0
    1.6876   -3.4526   -3.8947 H   0  0  0  0  0  0  0  0  0  0  0  0
   -0.2850   -2.3647   -3.2782 H   0  0  0  0  0  0  0  0  0  0  0  0
    2.2164   -4.0382   -1.4674 H   0  0  0  0  0  0  0  0  0  0  0  0
    4.1273   -2.8887   -3.2139 H   0  0  0  0  0  0  0  0  0  0  0  0
    0.9055    1.9648    4.2235 H   0  0  0  0  0  0  0  0  0  0  0  0
    0.3937   -3.4420    0.1748 H   0  0  0  0  0  0  0  0  0  0  0  0
   -1.8232   -4.3574   -0.1819 H   0  0  0  0  0  0  0  0  0  0  0  0
   -4.6379   -3.0639    1.5047 H   0  0  0  0  0  0  0  0  0  0  0  0
   -3.1216   -0.5705    4.3524 H   0  0  0  0  0  0  0  0  0  0  0  0
   -4.7501   -0.1302    3.8222 H   0  0  0  0  0  0  0  0  0  0  0  0
   -3.3667    0.5220    2.9344 H   0  0  0  0  0  0  0  0  0  0  0  0
   -1.2521   -0.5474    2.9337 H   0  0  0  0  0  0  0  0  0  0  0  0
  1  2  1  0
  2  3  2  0
  3  4  1  0
  4  5  1  0
  4  6  2  0
  6  7  1  0
  7  8  2  0
  8  9  1  0
  9 10  1  0
 10 11  1  0
 11 12  1  0
 12 13  1  0
 13 14  1  0
 14 15  1  0
 15 16  1  0
 16 17  1  0
 17 18  1  0
 17 19  1  0
 19 20  1  0
 19 21  1  0
 21 22  1  0
 21 23  1  0
 23 24  1  0
 12 25  1  0
 25 26  1  0
 25 27  1  0
 27 28  1  0
 27 29  1  0
 29 30  1  0
  8 31  1  0
 31 32  2  0
 32 33  1  0
 33 34  2  0
 31 35  1  0
 35 36  1  0
 36 37  2  0
 37 38  1  0
 38 39  1  0
 38 40  2  0
 40 41  1  0
 41 42  1  0
 40 43  1  0
 29 10  1  0
 23 15  1  0
 43 35  2  0
 34  2  1  0
 33  6  1  0
  1 44  1  0
  3 45  1  0
  5 46  1  0
  7 47  1  0
 10 48  1  1
 12 49  1  1
 13 50  1  0
 13 51  1  0
 15 52  1  1
 17 53  1  6
 18 54  1  0
 18 55  1  0
 18 56  1  0
 19 57  1  1
 20 58  1  0
 21 59  1  1
 22 60  1  0
 23 61  1  6
 24 62  1  0
 25 63  1  6
 26 64  1  0
 27 65  1  6
 28 66  1  0
 29 67  1  1
 30 68  1  0
 34 69  1  0
 36 70  1  0
 37 71  1  0
 39 72  1  0
 42 73  1  0
 42 74  1  0
 42 75  1  0
 43 76  1  0
M  CHG  1  32   1
M  END
>  <clase>  (8) 
Antocianina

>  <carga>  (8) 
1

>  <InChIKey>  (8) 
ONQVTPMFYSRRLL-LVQFFINWSA-O

>  <parte_planta>  (8) 
fruto

$$$$
Malvidín-3-glucósido
     RDKit          3D

 60 63  0  0  0  0  0  0  0  0999 V2000
   -6.0414    3.1820    1.9749 O   0  0  0  0  0  0  0  0  0  0  0  0
   -4.7713    2.6954    1.9976 C   0  0  0  0  0  0  0  0  0  0  0  0
   -4.0153    2.9459    3.1379 C   0  0  0  0  0  0  0  0  0  0  0  0
   -2.7088    2.4683    3.2123 C   0  0  0  0  0  0  0  0  0  0  0  0
   -1.9545    2.7094    4.3264 O   0  0  0  0  0  0  0  0  0  0  0  0
   -2.1351    1.7386    2.1552 C   0  0  0  0  0  0  0  0  0  0  0  0
   -0.8174    1.2591    2.1730 C   0  0  0  0  0  0  0  0  0  0  0  0
   -0.2780    0.6111    1.0657 C   0  0  0  0  0  0  0  0  0  0  0  0
    1.0250    0.1884    1.0405 O   0  0  0  0  0  0  0  0  0  0  0  0
    1.5722   -0.4503    2.2118 C   0  0  2  0  0  0  0  0  0  0  0  0
    2.9748   -0.6547    1.9736 O   0  0  0  0  0  0  0  0  0  0  0  0
    3.3469   -1.9415    1.4444 C   0  0  2  0  0  0  0  0  0  0  0  0
    4.6707   -1.7795    0.6838 C   0  0  0  0  0  0  0  0  0  0  0  0
    4.4396   -1.2276   -0.6117 O   0  0  0  0  0  0  0  0  0  0  0  0
    2.2326   -2.5363    0.5751 C   0  0  1  0  0  0  0  0  0  0  0  0
    2.5947   -3.7600   -0.0652 O   0  0  0  0  0  0  0  0  0  0  0  0
    0.9935   -2.7992    1.4453 C   0  0  2  0  0  0  0  0  0  0  0  0
   -0.1749   -2.7733    0.6003 O   0  0  0  0  0  0  0  0  0  0  0  0
    0.8318   -1.7648    2.5685 C   0  0  1  0  0  0  0  0  0  0  0  0
    1.3384   -2.2794    3.8065 O   0  0  0  0  0  0  0  0  0  0  0  0
   -1.0578    0.4375   -0.0970 C   0  0  0  0  0  0  0  0  0  0  0  0
   -2.4623    0.7235   -0.0624 O   0  0  0  0  0  0  0  0  0  0  0  0
   -2.9309    1.5014    1.0251 C   0  0  0  0  0  0  0  0  0  0  0  0
   -4.2412    1.9734    0.9404 C   0  0  0  0  0  0  0  0  0  0  0  0
   -0.6072   -0.1057   -1.3890 C   0  0  0  0  0  0  0  0  0  0  0  0
    0.6625    0.1672   -1.9288 C   0  0  0  0  0  0  0  0  0  0  0  0
    1.0748   -0.3499   -3.1655 C   0  0  0  0  0  0  0  0  0  0  0  0
    2.3418    0.0365   -3.5016 O   0  0  0  0  0  0  0  0  0  0  0  0
    2.9073   -0.4751   -4.7012 C   0  0  0  0  0  0  0  0  0  0  0  0
    0.1879   -1.1526   -3.8816 C   0  0  0  0  0  0  0  0  0  0  0  0
    0.5229   -1.6913   -5.0961 O   0  0  0  0  0  0  0  0  0  0  0  0
   -1.0942   -1.4325   -3.3806 C   0  0  0  0  0  0  0  0  0  0  0  0
   -1.8633   -2.2298   -4.1909 O   0  0  0  0  0  0  0  0  0  0  0  0
   -3.1695   -2.5630   -3.7343 C   0  0  0  0  0  0  0  0  0  0  0  0
   -1.4851   -0.9040   -2.1490 C   0  0  0  0  0  0  0  0  0  0  0  0
   -6.4990    2.9701    1.1419 H   0  0  0  0  0  0  0  0  0  0  0  0
   -4.4597    3.5130    3.9541 H   0  0  0  0  0  0  0  0  0  0  0  0
   -2.4629    3.2301    4.9774 H   0  0  0  0  0  0  0  0  0  0  0  0
   -0.2049    1.4621    3.0514 H   0  0  0  0  0  0  0  0  0  0  0  0
    1.5420    0.2415    3.0594 H   0  0  0  0  0  0  0  0  0  0  0  0
    3.5524   -2.5962    2.3006 H   0  0  0  0  0  0  0  0  0  0  0  0
    5.3476   -1.1110    1.2261 H   0  0  0  0  0  0  0  0  0  0  0  0
    5.1585   -2.7497    0.5472 H   0  0  0  0  0  0  0  0  0  0  0  0
    5.3022   -0.9240   -0.9489 H   0  0  0  0  0  0  0  0  0  0  0  0
    1.9594   -1.8420   -0.2266 H   0  0  0  0  0  0  0  0  0  0  0  0
    3.2329   -3.5217   -0.7677 H   0  0  0  0  0  0  0  0  0  0  0  0
    1.0376   -3.8095    1.8704 H   0  0  0  0  0  0  0  0  0  0  0  0
   -0.0085   -3.4735   -0.0669 H   0  0  0  0  0  0  0  0  0  0  0  0
   -0.2323   -1.5625    2.7312 H   0  0  0  0  0  0  0  0  0  0  0  0
    0.8475   -3.0925    4.0261 H   0  0  0  0  0  0  0  0  0  0  0  0
   -4.8150    1.7535    0.0477 H   0  0  0  0  0  0  0  0  0  0  0  0
    1.3743    0.7987   -1.3950 H   0  0  0  0  0  0  0  0  0  0  0  0
    3.9296   -0.0902   -4.7724 H   0  0  0  0  0  0  0  0  0  0  0  0
    2.3641   -0.1143   -5.5801 H   0  0  0  0  0  0  0  0  0  0  0  0
    2.9741   -1.5673   -4.6763 H   0  0  0  0  0  0  0  0  0  0  0  0
   -0.2605   -2.1936   -5.3962 H   0  0  0  0  0  0  0  0  0  0  0  0
   -3.6345   -3.2034   -4.4899 H   0  0  0  0  0  0  0  0  0  0  0  0
   -3.1265   -3.1280   -2.7974 H   0  0  0  0  0  0  0  0  0  0  0  0
   -3.7892   -1.6666   -3.6284 H   0  0  0  0  0  0  0  0  0  0  0  0
   -2.4764   -1.1067   -1.7501 H   0  0  0  0  0  0  0  0  0  0  0  0
  1  2  1  0
  2  3  2  0
  3  4  1  0
  4  5  1  0
  4  6  2  0
  6  7  1  0
  7  8  2  0
  8  9  1  0
  9 10  1  0
 10 11  1  0
 11 12  1  0
 12 13  1  0
 13 14  1  0
 12 15  1  0
 15 16  1  0
 15 17  1  0
 17 18  1  0
 17 19  1  0
 19 20  1  0
  8 21  1  0
 21 22  2  0
 22 23  1  0
 23 24  2  0
 21 25  1  0
 25 26  1  0
 26 27  2  0
 27 28  1  0
 28 29  1  0
 27 30  1  0
 30 31  1  0
 30 32  2  0
 32 33  1  0
 33 34  1  0
 32 35  1  0
 19 10  1  0
 35 25  2  0
 24  2  1  0
 23  6  1  0
  1 36  1  0
  3 37  1  0
  5 38  1  0
  7 39  1  0
 10 40  1  1
 12 41  1  1
 13 42  1  0
 13 43  1  0
 14 44  1  0
 15 45  1  6
 16 46  1  0
 17 47  1  1
 18 48  1  0
 19 49  1  1
 20 50  1  0
 24 51  1  0
 26 52  1  0
 29 53  1  0
 29 54  1  0
 29 55  1  0
 31 56  1  0
 34 57  1  0
 34 58  1  0
 34 59  1  0
 35 60  1  0
M  CHG  1  22   1
M  END
>  <clase>  (9) 
Antocianina

>  <carga>  (9) 
1

>  <InChIKey>  (9) 
PXUQTDZNOHRWLI-OXUVVOBNSA-O

>  <parte_planta>  (9) 
fruto

$$$$
Malvidín-3-rutinosido
     RDKit          3D

 80 84  0  0  0  0  0  0  0  0999 V2000
    4.5049   -6.9710    4.4696 O   0  0  0  0  0  0  0  0  0  0  0  0
    4.3391   -5.8312    3.7457 C   0  0  0  0  0  0  0  0  0  0  0  0
    5.4747   -5.2749    3.1665 C   0  0  0  0  0  0  0  0  0  0  0  0
    5.3588   -4.1075    2.4150 C   0  0  0  0  0  0  0  0  0  0  0  0
    6.4673   -3.5519    1.8389 O   0  0  0  0  0  0  0  0  0  0  0  0
    4.1152   -3.4770    2.2290 C   0  0  0  0  0  0  0  0  0  0  0  0
    3.9512   -2.3079    1.4716 C   0  0  0  0  0  0  0  0  0  0  0  0
    2.6942   -1.7369    1.3067 C   0  0  0  0  0  0  0  0  0  0  0  0
    2.4875   -0.6233    0.5287 O   0  0  0  0  0  0  0  0  0  0  0  0
    3.2300   -0.4896   -0.6947 C   0  0  2  0  0  0  0  0  0  0  0  0
    2.8018    0.7063   -1.3698 O   0  0  0  0  0  0  0  0  0  0  0  0
    1.5359    0.6444   -2.0493 C   0  0  2  0  0  0  0  0  0  0  0  0
    0.6975    1.8427   -1.5689 C   0  0  0  0  0  0  0  0  0  0  0  0
   -0.5662    1.8511   -2.2319 O   0  0  0  0  0  0  0  0  0  0  0  0
   -1.5527    2.6406   -1.5542 C   0  0  2  0  0  0  0  0  0  0  0  0
   -2.8232    2.4030   -2.1760 O   0  0  0  0  0  0  0  0  0  0  0  0
   -3.0508    3.2455   -3.3065 C   0  0  1  0  0  0  0  0  0  0  0  0
   -4.2995    2.7475   -4.0236 C   0  0  0  0  0  0  0  0  0  0  0  0
   -3.2146    4.7136   -2.8613 C   0  0  2  0  0  0  0  0  0  0  0  0
   -2.6849    5.5935   -3.8678 O   0  0  0  0  0  0  0  0  0  0  0  0
   -2.4579    4.9790   -1.5501 C   0  0  2  0  0  0  0  0  0  0  0  0
   -2.1049    6.3661   -1.4313 O   0  0  0  0  0  0  0  0  0  0  0  0
   -1.1833    4.1410   -1.4952 C   0  0  1  0  0  0  0  0  0  0  0  0
   -0.4578    4.4428   -0.2884 O   0  0  0  0  0  0  0  0  0  0  0  0
    0.7575   -0.6706   -1.8640 C   0  0  1  0  0  0  0  0  0  0  0  0
   -0.3607   -0.7920   -2.7467 O   0  0  0  0  0  0  0  0  0  0  0  0
    1.6448   -1.9065   -2.0677 C   0  0  2  0  0  0  0  0  0  0  0  0
    1.0978   -2.9617   -1.2433 O   0  0  0  0  0  0  0  0  0  0  0  0
    3.1064   -1.6752   -1.6722 C   0  0  1  0  0  0  0  0  0  0  0  0
    3.9090   -1.4339   -2.8370 O   0  0  0  0  0  0  0  0  0  0  0  0
    1.5789   -2.2891    1.9702 C   0  0  0  0  0  0  0  0  0  0  0  0
    1.7014   -3.4993    2.7187 O   0  0  0  0  0  0  0  0  0  0  0  0
    2.9934   -4.0667    2.8321 C   0  0  0  0  0  0  0  0  0  0  0  0
    3.0981   -5.2363    3.5856 C   0  0  0  0  0  0  0  0  0  0  0  0
    0.2159   -1.7358    1.9603 C   0  0  0  0  0  0  0  0  0  0  0  0
   -0.0540   -0.3602    2.1013 C   0  0  0  0  0  0  0  0  0  0  0  0
   -1.3668    0.1155    2.0658 C   0  0  0  0  0  0  0  0  0  0  0  0
   -1.7422    1.4315    2.1727 O   0  0  0  0  0  0  0  0  0  0  0  0
   -0.7458    2.3725    2.5613 C   0  0  0  0  0  0  0  0  0  0  0  0
   -2.4320   -0.7850    1.8901 C   0  0  0  0  0  0  0  0  0  0  0  0
   -3.6985   -0.2643    1.8491 O   0  0  0  0  0  0  0  0  0  0  0  0
   -2.1987   -2.1547    1.7729 C   0  0  0  0  0  0  0  0  0  0  0  0
   -3.1005   -3.1680    1.6089 O   0  0  0  0  0  0  0  0  0  0  0  0
   -4.4797   -2.8338    1.5177 C   0  0  0  0  0  0  0  0  0  0  0  0
   -0.8757   -2.6115    1.8209 C   0  0  0  0  0  0  0  0  0  0  0  0
    3.6605   -7.3025    4.8243 H   0  0  0  0  0  0  0  0  0  0  0  0
    6.4363   -5.7644    3.3108 H   0  0  0  0  0  0  0  0  0  0  0  0
    7.2560   -4.0968    2.0247 H   0  0  0  0  0  0  0  0  0  0  0  0
    4.8328   -1.8585    1.0148 H   0  0  0  0  0  0  0  0  0  0  0  0
    4.2829   -0.3046   -0.4556 H   0  0  0  0  0  0  0  0  0  0  0  0
    1.7291    0.7827   -3.1206 H   0  0  0  0  0  0  0  0  0  0  0  0
    0.5683    1.7745   -0.4822 H   0  0  0  0  0  0  0  0  0  0  0  0
    1.2345    2.7741   -1.7810 H   0  0  0  0  0  0  0  0  0  0  0  0
   -1.6490    2.2409   -0.5387 H   0  0  0  0  0  0  0  0  0  0  0  0
   -2.2084    3.1455   -4.0040 H   0  0  0  0  0  0  0  0  0  0  0  0
   -4.1678    1.7060   -4.3367 H   0  0  0  0  0  0  0  0  0  0  0  0
   -4.5201    3.3524   -4.9081 H   0  0  0  0  0  0  0  0  0  0  0  0
   -5.1688    2.7660   -3.3569 H   0  0  0  0  0  0  0  0  0  0  0  0
   -4.2655    4.9906   -2.7185 H   0  0  0  0  0  0  0  0  0  0  0  0
   -3.2636    5.5248   -4.6506 H   0  0  0  0  0  0  0  0  0  0  0  0
   -3.0886    4.7361   -0.6865 H   0  0  0  0  0  0  0  0  0  0  0  0
   -2.0718    6.7009   -2.3542 H   0  0  0  0  0  0  0  0  0  0  0  0
   -0.5155    4.4127   -2.3217 H   0  0  0  0  0  0  0  0  0  0  0  0
   -0.5349    5.4175   -0.1970 H   0  0  0  0  0  0  0  0  0  0  0  0
    0.3327   -0.6973   -0.8555 H   0  0  0  0  0  0  0  0  0  0  0  0
   -0.8410    0.0655   -2.7352 H   0  0  0  0  0  0  0  0  0  0  0  0
    1.5893   -2.2606   -3.1044 H   0  0  0  0  0  0  0  0  0  0  0  0
    0.2274   -3.1614   -1.6519 H   0  0  0  0  0  0  0  0  0  0  0  0
    3.5029   -2.5898   -1.2213 H   0  0  0  0  0  0  0  0  0  0  0  0
    3.7978   -0.5026   -3.1080 H   0  0  0  0  0  0  0  0  0  0  0  0
    2.1991   -5.6483    4.0293 H   0  0  0  0  0  0  0  0  0  0  0  0
    0.7699    0.3354    2.2353 H   0  0  0  0  0  0  0  0  0  0  0  0
   -1.2309    3.3471    2.6701 H   0  0  0  0  0  0  0  0  0  0  0  0
    0.0267    2.4671    1.7927 H   0  0  0  0  0  0  0  0  0  0  0  0
   -0.3076    2.1043    3.5282 H   0  0  0  0  0  0  0  0  0  0  0  0
   -3.6012    0.7025    1.9552 H   0  0  0  0  0  0  0  0  0  0  0  0
   -4.6790   -2.2031    0.6456 H   0  0  0  0  0  0  0  0  0  0  0  0
   -4.8402   -2.3807    2.4464 H   0  0  0  0  0  0  0  0  0  0  0  0
   -5.0349   -3.7665    1.3760 H   0  0  0  0  0  0  0  0  0  0  0  0
   -0.7012   -3.6852    1.7314 H   0  0  0  0  0  0  0  0  0  0  0  0
  1  2  1  0
  2  3  2  0
  3  4  1  0
  4  5  1  0
  4  6  2  0
  6  7  1  0
  7  8  2  0
  8  9  1  0
  9 10  1  0
 10 11  1  0
 11 12  1  0
 12 13  1  0
 13 14  1  0
 14 15  1  0
 15 16  1  0
 16 17  1  0
 17 18  1  0
 17 19  1  0
 19 20  1  0
 19 21  1  0
 21 22  1  0
 21 23  1  0
 23 24  1  0
 12 25  1  0
 25 26  1  0
 25 27  1  0
 27 28  1  0
 27 29  1  0
 29 30  1  0
  8 31  1  0
 31 32  2  0
 32 33  1  0
 33 34  2  0
 31 35  1  0
 35 36  1  0
 36 37  2  0
 37 38  1  0
 38 39  1  0
 37 40  1  0
 40 41  1  0
 40 42  2  0
 42 43  1  0
 43 44  1  0
 42 45  1  0
 29 10  1  0
 23 15  1  0
 45 35  2  0
 34  2  1  0
 33  6  1  0
  1 46  1  0
  3 47  1  0
  5 48  1  0
  7 49  1  0
 10 50  1  1
 12 51  1  6
 13 52  1  0
 13 53  1  0
 15 54  1  1
 17 55  1  6
 18 56  1  0
 18 57  1  0
 18 58  1  0
 19 59  1  1
 20 60  1  0
 21 61  1  1
 22 62  1  0
 23 63  1  6
 24 64  1  0
 25 65  1  1
 26 66  1  0
 27 67  1  6
 28 68  1  0
 29 69  1  1
 30 70  1  0
 34 71  1  0
 36 72  1  0
 39 73  1  0
 39 74  1  0
 39 75  1  0
 41 76  1  0
 44 77  1  0
 44 78  1  0
 44 79  1  0
 45 80  1  0
M  CHG  1  32   1
M  END
>  <clase>  (10) 
Antocianina

>  <carga>  (10) 
1

>  <InChIKey>  (10) 
YCDMGCUGMVVWAB-YAGJAPKFSA-O

>  <parte_planta>  (10) 
fruto

$$$$
Quercetín-3-rutinosido (Rutina)
     RDKit          3D

 73 77  0  0  0  0  0  0  0  0999 V2000
   -4.3164    1.0412    1.0507 O   0  0  0  0  0  0  0  0  0  0  0  0
   -3.8760   -0.0902    1.2452 C   0  0  0  0  0  0  0  0  0  0  0  0
   -2.4896   -0.5203    0.8641 C   0  0  0  0  0  0  0  0  0  0  0  0
   -1.5781    0.3103    0.2191 O   0  0  0  0  0  0  0  0  0  0  0  0
   -2.0093    1.5504   -0.3483 C   0  0  2  0  0  0  0  0  0  0  0  0
   -1.1885    1.8669   -1.4865 O   0  0  0  0  0  0  0  0  0  0  0  0
    0.1810    2.1723   -1.2116 C   0  0  2  0  0  0  0  0  0  0  0  0
    1.0847    1.0310   -1.7020 C   0  0  0  0  0  0  0  0  0  0  0  0
    2.4606    1.3796   -1.5054 O   0  0  0  0  0  0  0  0  0  0  0  0
    3.3448    0.4733   -2.1792 C   0  0  2  0  0  0  0  0  0  0  0  0
    3.2906   -0.8194   -1.5854 O   0  0  0  0  0  0  0  0  0  0  0  0
    4.0331   -1.7971   -2.3386 C   0  0  1  0  0  0  0  0  0  0  0  0
    3.0696   -2.5462   -3.2568 C   0  0  0  0  0  0  0  0  0  0  0  0
    5.2264   -1.2125   -3.1327 C   0  0  2  0  0  0  0  0  0  0  0  0
    6.2422   -2.2067   -3.3174 O   0  0  0  0  0  0  0  0  0  0  0  0
    5.8364   -0.0209   -2.3847 C   0  0  2  0  0  0  0  0  0  0  0  0
    6.4182   -0.5019   -1.1606 O   0  0  0  0  0  0  0  0  0  0  0  0
    4.7768    1.0479   -2.0780 C   0  0  1  0  0  0  0  0  0  0  0  0
    4.9038    2.1377   -3.0074 O   0  0  0  0  0  0  0  0  0  0  0  0
    0.4768    2.5609    0.2438 C   0  0  1  0  0  0  0  0  0  0  0  0
    1.7093    3.2875    0.3566 O   0  0  0  0  0  0  0  0  0  0  0  0
   -0.6612    3.4381    0.7528 C   0  0  2  0  0  0  0  0  0  0  0  0
   -0.3636    3.8361    2.1036 O   0  0  0  0  0  0  0  0  0  0  0  0
   -1.9953    2.6849    0.7123 C   0  0  1  0  0  0  0  0  0  0  0  0
   -3.0496    3.6282    0.4419 O   0  0  0  0  0  0  0  0  0  0  0  0
   -2.1362   -1.7835    1.1903 C   0  0  0  0  0  0  0  0  0  0  0  0
   -0.8040   -2.3537    0.8816 C   0  0  0  0  0  0  0  0  0  0  0  0
   -0.7152   -3.6258    0.2819 C   0  0  0  0  0  0  0  0  0  0  0  0
    0.5259   -4.2048   -0.0011 C   0  0  0  0  0  0  0  0  0  0  0  0
    1.6813   -3.5064    0.3057 C   0  0  0  0  0  0  0  0  0  0  0  0
    2.8944   -4.0766    0.0528 O   0  0  0  0  0  0  0  0  0  0  0  0
    1.6060   -2.2413    0.8753 C   0  0  0  0  0  0  0  0  0  0  0  0
    2.7516   -1.5273    1.0778 O   0  0  0  0  0  0  0  0  0  0  0  0
    0.3811   -1.6739    1.1980 C   0  0  0  0  0  0  0  0  0  0  0  0
   -2.9567   -2.7060    1.8175 O   0  0  0  0  0  0  0  0  0  0  0  0
   -4.2320   -2.3461    2.1503 C   0  0  0  0  0  0  0  0  0  0  0  0
   -5.0175   -3.3208    2.7712 C   0  0  0  0  0  0  0  0  0  0  0  0
   -6.3257   -3.0130    3.1311 C   0  0  0  0  0  0  0  0  0  0  0  0
   -7.1300   -3.9306    3.7379 O   0  0  0  0  0  0  0  0  0  0  0  0
   -6.8557   -1.7522    2.8801 C   0  0  0  0  0  0  0  0  0  0  0  0
   -6.0644   -0.7858    2.2639 C   0  0  0  0  0  0  0  0  0  0  0  0
   -6.6477    0.4335    2.0492 O   0  0  0  0  0  0  0  0  0  0  0  0
   -4.7458   -1.0813    1.8956 C   0  0  0  0  0  0  0  0  0  0  0  0
   -3.0030    1.4297   -0.7902 H   0  0  0  0  0  0  0  0  0  0  0  0
    0.4262    3.0416   -1.8369 H   0  0  0  0  0  0  0  0  0  0  0  0
    0.8583    0.1050   -1.1647 H   0  0  0  0  0  0  0  0  0  0  0  0
    0.8844    0.8502   -2.7651 H   0  0  0  0  0  0  0  0  0  0  0  0
    3.0340    0.4286   -3.2318 H   0  0  0  0  0  0  0  0  0  0  0  0
    4.4134   -2.5202   -1.6080 H   0  0  0  0  0  0  0  0  0  0  0  0
    2.6341   -1.8746   -4.0045 H   0  0  0  0  0  0  0  0  0  0  0  0
    3.5701   -3.3679   -3.7769 H   0  0  0  0  0  0  0  0  0  0  0  0
    2.2321   -2.9559   -2.6834 H   0  0  0  0  0  0  0  0  0  0  0  0
    4.9061   -0.8765   -4.1267 H   0  0  0  0  0  0  0  0  0  0  0  0
    5.8773   -2.9066   -3.8880 H   0  0  0  0  0  0  0  0  0  0  0  0
    6.6631    0.4022   -2.9672 H   0  0  0  0  0  0  0  0  0  0  0  0
    7.0054   -1.2362   -1.4329 H   0  0  0  0  0  0  0  0  0  0  0  0
    4.9479    1.4627   -1.0769 H   0  0  0  0  0  0  0  0  0  0  0  0
    4.3284    2.8506   -2.6711 H   0  0  0  0  0  0  0  0  0  0  0  0
    0.5788    1.6793    0.8870 H   0  0  0  0  0  0  0  0  0  0  0  0
    2.3921    2.7208   -0.0579 H   0  0  0  0  0  0  0  0  0  0  0  0
   -0.7170    4.3684    0.1738 H   0  0  0  0  0  0  0  0  0  0  0  0
    0.5525    4.1775    2.0656 H   0  0  0  0  0  0  0  0  0  0  0  0
   -2.1996    2.2798    1.7103 H   0  0  0  0  0  0  0  0  0  0  0  0
   -3.8812    3.1511    0.6334 H   0  0  0  0  0  0  0  0  0  0  0  0
   -1.6179   -4.1811    0.0341 H   0  0  0  0  0  0  0  0  0  0  0  0
    0.5855   -5.1916   -0.4493 H   0  0  0  0  0  0  0  0  0  0  0  0
    3.5380   -3.5380    0.5541 H   0  0  0  0  0  0  0  0  0  0  0  0
    3.0152   -1.2124    0.1835 H   0  0  0  0  0  0  0  0  0  0  0  0
    0.3605   -0.7017    1.6811 H   0  0  0  0  0  0  0  0  0  0  0  0
   -4.5979   -4.3033    2.9650 H   0  0  0  0  0  0  0  0  0  0  0  0
   -6.6325   -4.7526    3.8813 H   0  0  0  0  0  0  0  0  0  0  0  0
   -7.8788   -1.5214    3.1648 H   0  0  0  0  0  0  0  0  0  0  0  0
   -5.9837    1.0255    1.6348 H   0  0  0  0  0  0  0  0  0  0  0  0
  1  2  2  0
  2  3  1  0
  3  4  1  0
  4  5  1  0
  5  6  1  0
  6  7  1  0
  7  8  1  0
  8  9  1  0
  9 10  1  0
 10 11  1  0
 11 12  1  0
 12 13  1  0
 12 14  1  0
 14 15  1  0
 14 16  1  0
 16 17  1  0
 16 18  1  0
 18 19  1  0
  7 20  1  0
 20 21  1  0
 20 22  1  0
 22 23  1  0
 22 24  1  0
 24 25  1  0
  3 26  2  0
 26 27  1  0
 27 28  1  0
 28 29  2  0
 29 30  1  0
 30 31  1  0
 30 32  2  0
 32 33  1  0
 32 34  1  0
 26 35  1  0
 35 36  1  0
 36 37  2  0
 37 38  1  0
 38 39  1  0
 38 40  2  0
 40 41  1  0
 41 42  1  0
 41 43  2  0
 24  5  1  0
 18 10  1  0
 34 27  2  0
 43  2  1  0
 43 36  1  0
  5 44  1  6
  7 45  1  6
  8 46  1  0
  8 47  1  0
 10 48  1  6
 12 49  1  1
 13 50  1  0
 13 51  1  0
 13 52  1  0
 14 53  1  6
 15 54  1  0
 16 55  1  6
 17 56  1  0
 18 57  1  1
 19 58  1  0
 20 59  1  1
 21 60  1  0
 22 61  1  6
 23 62  1  0
 24 63  1  1
 25 64  1  0
 28 65  1  0
 29 66  1  0
 31 67  1  0
 33 68  1  0
 34 69  1  0
 37 70  1  0
 39 71  1  0
 40 72  1  0
 42 73  1  0
M  END
>  <clase>  (11) 
Flavonol

>  <carga>  (11) 
0

>  <InChIKey>  (11) 
IKGXIBQEEMLURG-FYIKAPSBSA-N

>  <parte_planta>  (11) 
fruto|hojas

$$$$
Quercetín-3-galactosido
     RDKit          3D

 53 56  0  0  0  0  0  0  0  0999 V2000
    0.5449    2.3643    0.1433 O   0  0  0  0  0  0  0  0  0  0  0  0
    0.1936    1.6277   -0.7767 C   0  0  0  0  0  0  0  0  0  0  0  0
   -0.2396    0.2274   -0.5351 C   0  0  0  0  0  0  0  0  0  0  0  0
   -0.2664   -0.2560    0.7597 O   0  0  0  0  0  0  0  0  0  0  0  0
    1.0433   -0.3853    1.3434 C   0  0  2  0  0  0  0  0  0  0  0  0
    1.4414   -1.7609    1.3696 O   0  0  0  0  0  0  0  0  0  0  0  0
    1.1029   -2.5117    2.5467 C   0  0  2  0  0  0  0  0  0  0  0  0
   -0.3760   -2.9420    2.5699 C   0  0  0  0  0  0  0  0  0  0  0  0
   -1.2919   -1.8555    2.6427 O   0  0  0  0  0  0  0  0  0  0  0  0
    1.6594   -1.8629    3.8335 C   0  0  2  0  0  0  0  0  0  0  0  0
    0.7706   -1.9990    4.9446 O   0  0  0  0  0  0  0  0  0  0  0  0
    2.0421   -0.3945    3.6344 C   0  0  2  0  0  0  0  0  0  0  0  0
    2.0962    0.2622    4.9136 O   0  0  0  0  0  0  0  0  0  0  0  0
    1.0459    0.3081    2.7239 C   0  0  1  0  0  0  0  0  0  0  0  0
    1.4415    1.6926    2.6318 O   0  0  0  0  0  0  0  0  0  0  0  0
   -0.6741   -0.4865   -1.5887 C   0  0  0  0  0  0  0  0  0  0  0  0
   -1.1774   -1.8581   -1.4330 C   0  0  0  0  0  0  0  0  0  0  0  0
   -2.4357   -2.0940   -0.8514 C   0  0  0  0  0  0  0  0  0  0  0  0
   -2.9114   -3.3986   -0.6843 C   0  0  0  0  0  0  0  0  0  0  0  0
   -2.1247   -4.4628   -1.1052 C   0  0  0  0  0  0  0  0  0  0  0  0
   -2.5289   -5.7611   -0.9641 O   0  0  0  0  0  0  0  0  0  0  0  0
   -0.8809   -4.2321   -1.6883 C   0  0  0  0  0  0  0  0  0  0  0  0
   -0.1152   -5.2865   -2.0972 O   0  0  0  0  0  0  0  0  0  0  0  0
   -0.3995   -2.9414   -1.8583 C   0  0  0  0  0  0  0  0  0  0  0  0
   -0.6814   -0.0453   -2.8992 O   0  0  0  0  0  0  0  0  0  0  0  0
   -0.2509    1.2303   -3.1608 C   0  0  0  0  0  0  0  0  0  0  0  0
   -0.2688    1.6425   -4.4929 C   0  0  0  0  0  0  0  0  0  0  0  0
    0.1517    2.9287   -4.8187 C   0  0  0  0  0  0  0  0  0  0  0  0
    0.1183    3.2911   -6.1323 O   0  0  0  0  0  0  0  0  0  0  0  0
    0.5889    3.8112   -3.8351 C   0  0  0  0  0  0  0  0  0  0  0  0
    0.6041    3.3941   -2.5057 C   0  0  0  0  0  0  0  0  0  0  0  0
    1.0424    4.3065   -1.5847 O   0  0  0  0  0  0  0  0  0  0  0  0
    0.1862    2.1024   -2.1661 C   0  0  0  0  0  0  0  0  0  0  0  0
    1.7932    0.1092    0.7123 H   0  0  0  0  0  0  0  0  0  0  0  0
    1.6575   -3.4523    2.4289 H   0  0  0  0  0  0  0  0  0  0  0  0
   -0.6105   -3.5012    1.6580 H   0  0  0  0  0  0  0  0  0  0  0  0
   -0.5712   -3.6042    3.4192 H   0  0  0  0  0  0  0  0  0  0  0  0
   -1.3027   -1.4455    1.7578 H   0  0  0  0  0  0  0  0  0  0  0  0
    2.5699   -2.3981    4.1310 H   0  0  0  0  0  0  0  0  0  0  0  0
    1.0198   -1.2738    5.5572 H   0  0  0  0  0  0  0  0  0  0  0  0
    3.0468   -0.3220    3.1992 H   0  0  0  0  0  0  0  0  0  0  0  0
    2.1080    1.2187    4.6984 H   0  0  0  0  0  0  0  0  0  0  0  0
    0.0481    0.3188    3.1756 H   0  0  0  0  0  0  0  0  0  0  0  0
    0.9477    2.0870    1.8783 H   0  0  0  0  0  0  0  0  0  0  0  0
   -3.0529   -1.2602   -0.5215 H   0  0  0  0  0  0  0  0  0  0  0  0
   -3.8829   -3.5570   -0.2268 H   0  0  0  0  0  0  0  0  0  0  0  0
   -3.4024   -5.7627   -0.5353 H   0  0  0  0  0  0  0  0  0  0  0  0
   -0.6517   -6.0769   -1.8863 H   0  0  0  0  0  0  0  0  0  0  0  0
    0.5758   -2.7895   -2.3118 H   0  0  0  0  0  0  0  0  0  0  0  0
   -0.6081    0.9678   -5.2745 H   0  0  0  0  0  0  0  0  0  0  0  0
    0.4389    4.2052   -6.2170 H   0  0  0  0  0  0  0  0  0  0  0  0
    0.9173    4.8164   -4.0808 H   0  0  0  0  0  0  0  0  0  0  0  0
    0.9909    3.9014   -0.6914 H   0  0  0  0  0  0  0  0  0  0  0  0
  1  2  2  0
  2  3  1  0
  3  4  1  0
  4  5  1  0
  5  6  1  0
  6  7  1  0
  7  8  1  0
  8  9  1  0
  7 10  1  0
 10 11  1  0
 10 12  1  0
 12 13  1  0
 12 14  1  0
 14 15  1  0
  3 16  2  0
 16 17  1  0
 17 18  1  0
 18 19  2  0
 19 20  1  0
 20 21  1  0
 20 22  2  0
 22 23  1  0
 22 24  1  0
 16 25  1  0
 25 26  1  0
 26 27  2  0
 27 28  1  0
 28 29  1  0
 28 30  2  0
 30 31  1  0
 31 32  1  0
 31 33  2  0
 14  5  1  0
 24 17  2  0
 33  2  1  0
 33 26  1  0
  5 34  1  6
  7 35  1  6
  8 36  1  0
  8 37  1  0
  9 38  1  0
 10 39  1  1
 11 40  1  0
 12 41  1  6
 13 42  1  0
 14 43  1  1
 15 44  1  0
 18 45  1  0
 19 46  1  0
 21 47  1  0
 23 48  1  0
 24 49  1  0
 27 50  1  0
 29 51  1  0
 30 52  1  0
 32 53  1  0
M  END
>  <clase>  (12) 
Flavonol

>  <carga>  (12) 
0

>  <InChIKey>  (12) 
OVSQVDMCBVZWGM-DTGCRPNFSA-N

>  <parte_planta>  (12) 
fruto

$$$$
Quercetín-3-glucósido
     RDKit          3D

 53 56  0  0  0  0  0  0  0  0999 V2000
    1.3014    1.9375   -0.8804 O   0  0  0  0  0  0  0  0  0  0  0  0
    0.3866    1.2391   -1.3134 C   0  0  0  0  0  0  0  0  0  0  0  0
   -0.1661    0.0812   -0.5536 C   0  0  0  0  0  0  0  0  0  0  0  0
    0.3126   -0.1926    0.7195 O   0  0  0  0  0  0  0  0  0  0  0  0
    1.7139   -0.4760    0.7511 C   0  0  2  0  0  0  0  0  0  0  0  0
    1.9775   -1.8324    1.1217 O   0  0  0  0  0  0  0  0  0  0  0  0
    1.8648   -2.1733    2.5103 C   0  0  2  0  0  0  0  0  0  0  0  0
    0.4201   -2.4858    2.9549 C   0  0  0  0  0  0  0  0  0  0  0  0
   -0.4587   -1.3823    3.1125 O   0  0  0  0  0  0  0  0  0  0  0  0
    2.6376   -1.2125    3.4290 C   0  0  1  0  0  0  0  0  0  0  0  0
    4.0471   -1.4631    3.2812 O   0  0  0  0  0  0  0  0  0  0  0  0
    2.3560    0.2634    3.1235 C   0  0  2  0  0  0  0  0  0  0  0  0
    1.0719    0.6413    3.6243 O   0  0  0  0  0  0  0  0  0  0  0  0
    2.4865    0.5460    1.6210 C   0  0  1  0  0  0  0  0  0  0  0  0
    3.8898    0.5068    1.2874 O   0  0  0  0  0  0  0  0  0  0  0  0
   -1.1516   -0.6304   -1.1366 C   0  0  0  0  0  0  0  0  0  0  0  0
   -1.7901   -1.7943   -0.4966 C   0  0  0  0  0  0  0  0  0  0  0  0
   -2.4866   -1.6649    0.7120 C   0  0  0  0  0  0  0  0  0  0  0  0
   -3.1110   -2.7701    1.2979 C   0  0  0  0  0  0  0  0  0  0  0  0
   -3.0476   -4.0105    0.6699 C   0  0  0  0  0  0  0  0  0  0  0  0
   -3.6468   -5.1012    1.2342 O   0  0  0  0  0  0  0  0  0  0  0  0
   -2.3680   -4.1490   -0.5394 C   0  0  0  0  0  0  0  0  0  0  0  0
   -2.3192   -5.3747   -1.1436 O   0  0  0  0  0  0  0  0  0  0  0  0
   -1.7430   -3.0481   -1.1260 C   0  0  0  0  0  0  0  0  0  0  0  0
   -1.6576   -0.3898   -2.4046 O   0  0  0  0  0  0  0  0  0  0  0  0
   -1.1892    0.6847   -3.1109 C   0  0  0  0  0  0  0  0  0  0  0  0
   -1.7576    0.9162   -4.3634 C   0  0  0  0  0  0  0  0  0  0  0  0
   -1.3195    1.9934   -5.1280 C   0  0  0  0  0  0  0  0  0  0  0  0
   -1.9016    2.1831   -6.3457 O   0  0  0  0  0  0  0  0  0  0  0  0
   -0.3216    2.8438   -4.6618 C   0  0  0  0  0  0  0  0  0  0  0  0
    0.2421    2.6056   -3.4101 C   0  0  0  0  0  0  0  0  0  0  0  0
    1.2198    3.4742   -3.0050 O   0  0  0  0  0  0  0  0  0  0  0  0
   -0.1909    1.5249   -2.6319 C   0  0  0  0  0  0  0  0  0  0  0  0
    2.1339   -0.4179   -0.2615 H   0  0  0  0  0  0  0  0  0  0  0  0
    2.3823   -3.1407    2.5676 H   0  0  0  0  0  0  0  0  0  0  0  0
   -0.0423   -3.1587    2.2261 H   0  0  0  0  0  0  0  0  0  0  0  0
    0.4456   -3.0083    3.9173 H   0  0  0  0  0  0  0  0  0  0  0  0
    0.0323   -0.6285    3.4977 H   0  0  0  0  0  0  0  0  0  0  0  0
    2.3923   -1.4352    4.4735 H   0  0  0  0  0  0  0  0  0  0  0  0
    4.3237   -1.0673    2.4275 H   0  0  0  0  0  0  0  0  0  0  0  0
    3.0985    0.8675    3.6611 H   0  0  0  0  0  0  0  0  0  0  0  0
    1.0164    1.6146    3.5672 H   0  0  0  0  0  0  0  0  0  0  0  0
    2.1268    1.5616    1.4269 H   0  0  0  0  0  0  0  0  0  0  0  0
    3.9744    0.8900    0.3931 H   0  0  0  0  0  0  0  0  0  0  0  0
   -2.5305   -0.7057    1.2242 H   0  0  0  0  0  0  0  0  0  0  0  0
   -3.6240   -2.6415    2.2457 H   0  0  0  0  0  0  0  0  0  0  0  0
   -4.0340   -4.8393    2.0834 H   0  0  0  0  0  0  0  0  0  0  0  0
   -1.8003   -5.3068   -1.9591 H   0  0  0  0  0  0  0  0  0  0  0  0
   -1.2154   -3.1564   -2.0689 H   0  0  0  0  0  0  0  0  0  0  0  0
   -2.5391    0.2633   -4.7432 H   0  0  0  0  0  0  0  0  0  0  0  0
   -1.5111    2.9687   -6.7650 H   0  0  0  0  0  0  0  0  0  0  0  0
    0.0266    3.6864   -5.2510 H   0  0  0  0  0  0  0  0  0  0  0  0
    1.5247    3.2003   -2.1120 H   0  0  0  0  0  0  0  0  0  0  0  0
  1  2  2  0
  2  3  1  0
  3  4  1  0
  4  5  1  0
  5  6  1  0
  6  7  1  0
  7  8  1  0
  8  9  1  0
  7 10  1  0
 10 11  1  0
 10 12  1  0
 12 13  1  0
 12 14  1  0
 14 15  1  0
  3 16  2  0
 16 17  1  0
 17 18  1  0
 18 19  2  0
 19 20  1  0
 20 21  1  0
 20 22  2  0
 22 23  1  0
 22 24  1  0
 16 25  1  0
 25 26  1  0
 26 27  2  0
 27 28  1  0
 28 29  1  0
 28 30  2  0
 30 31  1  0
 31 32  1  0
 31 33  2  0
 14  5  1  0
 24 17  2  0
 33  2  1  0
 33 26  1  0
  5 34  1  6
  7 35  1  6
  8 36  1  0
  8 37  1  0
  9 38  1  0
 10 39  1  1
 11 40  1  0
 12 41  1  1
 13 42  1  0
 14 43  1  1
 15 44  1  0
 18 45  1  0
 19 46  1  0
 21 47  1  0
 23 48  1  0
 24 49  1  0
 27 50  1  0
 29 51  1  0
 30 52  1  0
 32 53  1  0
M  END
>  <clase>  (13) 
Flavonol

>  <carga>  (13) 
0

>  <InChIKey>  (13) 
OVSQVDMCBVZWGM-QSOFNFLRSA-N

>  <parte_planta>  (13) 
fruto

$$$$
Quercetín-3-malonilgalactosido
     RDKit          3D

 61 64  0  0  0  0  0  0  0  0999 V2000
   -1.5661   -0.8347    3.7342 O   0  0  0  0  0  0  0  0  0  0  0  0
   -2.0497   -1.0701    2.6297 C   0  0  0  0  0  0  0  0  0  0  0  0
   -1.2218   -1.1580    1.3949 C   0  0  0  0  0  0  0  0  0  0  0  0
    0.1484   -0.9865    1.4740 O   0  0  0  0  0  0  0  0  0  0  0  0
    0.5455    0.2931    1.9921 C   0  0  2  0  0  0  0  0  0  0  0  0
    1.0234    1.0988    0.8976 O   0  0  0  0  0  0  0  0  0  0  0  0
    2.4381    1.3352    0.8764 C   0  0  2  0  0  0  0  0  0  0  0  0
    2.8015    1.9521   -0.4815 C   0  0  0  0  0  0  0  0  0  0  0  0
    2.6047    1.0035   -1.5433 O   0  0  0  0  0  0  0  0  0  0  0  0
    2.9713    1.4730   -2.7734 C   0  0  0  0  0  0  0  0  0  0  0  0
    3.3753    2.6074   -2.9872 O   0  0  0  0  0  0  0  0  0  0  0  0
    2.7291    0.4297   -3.8151 C   0  0  0  0  0  0  0  0  0  0  0  0
    3.6842    0.5096   -4.9569 C   0  0  0  0  0  0  0  0  0  0  0  0
    4.8875    0.6990   -4.8983 O   0  0  0  0  0  0  0  0  0  0  0  0
    3.0943    0.2662   -6.1463 O   0  0  0  0  0  0  0  0  0  0  0  0
    3.2023    0.0370    1.1699 C   0  0  2  0  0  0  0  0  0  0  0  0
    2.8077   -1.0475    0.3067 O   0  0  0  0  0  0  0  0  0  0  0  0
    2.9345   -0.3967    2.6211 C   0  0  2  0  0  0  0  0  0  0  0  0
    3.0736   -1.8178    2.7397 O   0  0  0  0  0  0  0  0  0  0  0  0
    1.5602    0.0647    3.1386 C   0  0  1  0  0  0  0  0  0  0  0  0
    1.7357    1.2933    3.8727 O   0  0  0  0  0  0  0  0  0  0  0  0
   -1.8427   -1.4861    0.2454 C   0  0  0  0  0  0  0  0  0  0  0  0
   -1.1171   -1.6669   -1.0277 C   0  0  0  0  0  0  0  0  0  0  0  0
   -0.0524   -2.5803   -1.1316 C   0  0  0  0  0  0  0  0  0  0  0  0
    0.6058   -2.7747   -2.3478 C   0  0  0  0  0  0  0  0  0  0  0  0
    0.1921   -2.0607   -3.4604 C   0  0  0  0  0  0  0  0  0  0  0  0
    0.8408   -2.2448   -4.6473 O   0  0  0  0  0  0  0  0  0  0  0  0
   -0.8603   -1.1538   -3.3751 C   0  0  0  0  0  0  0  0  0  0  0  0
   -1.2044   -0.4750   -4.5111 O   0  0  0  0  0  0  0  0  0  0  0  0
   -1.5214   -0.9528   -2.1681 C   0  0  0  0  0  0  0  0  0  0  0  0
   -3.2098   -1.6722    0.1112 O   0  0  0  0  0  0  0  0  0  0  0  0
   -4.0020   -1.5699    1.2247 C   0  0  0  0  0  0  0  0  0  0  0  0
   -5.3715   -1.7763    1.0440 C   0  0  0  0  0  0  0  0  0  0  0  0
   -6.2235   -1.6856    2.1414 C   0  0  0  0  0  0  0  0  0  0  0  0
   -7.5668   -1.8796    2.0143 O   0  0  0  0  0  0  0  0  0  0  0  0
   -5.7291   -1.3936    3.4090 C   0  0  0  0  0  0  0  0  0  0  0  0
   -4.3626   -1.1918    3.5824 C   0  0  0  0  0  0  0  0  0  0  0  0
   -3.9365   -0.9116    4.8524 O   0  0  0  0  0  0  0  0  0  0  0  0
   -3.4954   -1.2788    2.4879 C   0  0  0  0  0  0  0  0  0  0  0  0
   -0.3067    0.8569    2.3902 H   0  0  0  0  0  0  0  0  0  0  0  0
    2.6685    2.0922    1.6359 H   0  0  0  0  0  0  0  0  0  0  0  0
    2.1582    2.8203   -0.6690 H   0  0  0  0  0  0  0  0  0  0  0  0
    3.8520    2.2663   -0.4676 H   0  0  0  0  0  0  0  0  0  0  0  0
    2.8352   -0.5681   -3.3787 H   0  0  0  0  0  0  0  0  0  0  0  0
    1.7044    0.5635   -4.1744 H   0  0  0  0  0  0  0  0  0  0  0  0
    3.8342    0.3132   -6.7888 H   0  0  0  0  0  0  0  0  0  0  0  0
    4.2795    0.1732    1.0242 H   0  0  0  0  0  0  0  0  0  0  0  0
    2.2033   -0.6748   -0.3680 H   0  0  0  0  0  0  0  0  0  0  0  0
    3.7094    0.0443    3.2601 H   0  0  0  0  0  0  0  0  0  0  0  0
    2.9245   -2.1617    1.8313 H   0  0  0  0  0  0  0  0  0  0  0  0
    1.1545   -0.6759    3.8380 H   0  0  0  0  0  0  0  0  0  0  0  0
    2.0530    1.0403    4.7596 H   0  0  0  0  0  0  0  0  0  0  0  0
    0.2725   -3.1523   -0.2640 H   0  0  0  0  0  0  0  0  0  0  0  0
    1.4291   -3.4791   -2.4227 H   0  0  0  0  0  0  0  0  0  0  0  0
    0.3678   -1.6734   -5.2857 H   0  0  0  0  0  0  0  0  0  0  0  0
   -1.9602    0.1030   -4.3072 H   0  0  0  0  0  0  0  0  0  0  0  0
   -2.3442   -0.2474   -2.0994 H   0  0  0  0  0  0  0  0  0  0  0  0
   -5.7533   -2.0060    0.0541 H   0  0  0  0  0  0  0  0  0  0  0  0
   -7.7762   -2.1013    1.0920 H   0  0  0  0  0  0  0  0  0  0  0  0
   -6.4039   -1.3261    4.2580 H   0  0  0  0  0  0  0  0  0  0  0  0
   -2.9581   -0.8148    4.8381 H   0  0  0  0  0  0  0  0  0  0  0  0
  1  2  2  0
  2  3  1  0
  3  4  1  0
  4  5  1  0
  5  6  1  0
  6  7  1  0
  7  8  1  0
  8  9  1  0
  9 10  1  0
 10 11  2  0
 10 12  1  0
 12 13  1  0
 13 14  2  0
 13 15  1  0
  7 16  1  0
 16 17  1  0
 16 18  1  0
 18 19  1  0
 18 20  1  0
 20 21  1  0
  3 22  2  0
 22 23  1  0
 23 24  1  0
 24 25  2  0
 25 26  1  0
 26 27  1  0
 26 28  2  0
 28 29  1  0
 28 30  1  0
 22 31  1  0
 31 32  1  0
 32 33  2  0
 33 34  1  0
 34 35  1  0
 34 36  2  0
 36 37  1  0
 37 38  1  0
 37 39  2  0
 20  5  1  0
 30 23  2  0
 39  2  1  0
 39 32  1  0
  5 40  1  1
  7 41  1  1
  8 42  1  0
  8 43  1  0
 12 44  1  0
 12 45  1  0
 15 46  1  0
 16 47  1  1
 17 48  1  0
 18 49  1  1
 19 50  1  0
 20 51  1  1
 21 52  1  0
 24 53  1  0
 25 54  1  0
 27 55  1  0
 29 56  1  0
 30 57  1  0
 33 58  1  0
 35 59  1  0
 36 60  1  0
 38 61  1  0
M  END
>  <clase>  (14) 
Flavonol

>  <carga>  (14) 
0

>  <InChIKey>  (14) 
NBQPHANHNTWDML-YYYZAYPPSA-N

>  <parte_planta>  (14) 
fruto

$$$$
Quercetín-3-malonilglucósido
     RDKit          3D

 61 64  0  0  0  0  0  0  0  0999 V2000
   -0.3336    1.0966   -1.8710 O   0  0  0  0  0  0  0  0  0  0  0  0
   -1.0334    0.7092   -0.9412 C   0  0  0  0  0  0  0  0  0  0  0  0
   -1.3586   -0.7393   -0.8077 C   0  0  0  0  0  0  0  0  0  0  0  0
   -0.8734   -1.6170   -1.7611 O   0  0  0  0  0  0  0  0  0  0  0  0
    0.5243   -1.9413   -1.5867 C   0  0  2  0  0  0  0  0  0  0  0  0
    1.1418   -1.3389   -0.4482 O   0  0  0  0  0  0  0  0  0  0  0  0
    2.5133   -1.7165   -0.2698 C   0  0  2  0  0  0  0  0  0  0  0  0
    3.0404   -1.0320    1.0011 C   0  0  0  0  0  0  0  0  0  0  0  0
    3.0551    0.4000    0.8393 O   0  0  0  0  0  0  0  0  0  0  0  0
    2.0071    1.0909    1.3653 C   0  0  0  0  0  0  0  0  0  0  0  0
    1.0604    0.6051    1.9725 O   0  0  0  0  0  0  0  0  0  0  0  0
    2.1363    2.5490    1.0600 C   0  0  0  0  0  0  0  0  0  0  0  0
    3.3355    3.1765    1.6845 C   0  0  0  0  0  0  0  0  0  0  0  0
    4.0574    2.7149    2.5512 O   0  0  0  0  0  0  0  0  0  0  0  0
    3.5595    4.4222    1.2128 O   0  0  0  0  0  0  0  0  0  0  0  0
    3.3522   -1.3487   -1.5035 C   0  0  1  0  0  0  0  0  0  0  0  0
    4.6909   -1.8360   -1.3692 O   0  0  0  0  0  0  0  0  0  0  0  0
    2.7311   -1.9638   -2.7581 C   0  0  2  0  0  0  0  0  0  0  0  0
    3.4721   -1.5300   -3.9108 O   0  0  0  0  0  0  0  0  0  0  0  0
    1.2630   -1.5693   -2.8863 C   0  0  1  0  0  0  0  0  0  0  0  0
    0.7108   -2.2451   -4.0298 O   0  0  0  0  0  0  0  0  0  0  0  0
   -2.1414   -1.1340    0.2114 C   0  0  0  0  0  0  0  0  0  0  0  0
   -2.4952   -2.5480    0.4263 C   0  0  0  0  0  0  0  0  0  0  0  0
   -2.1128   -3.1806    1.6224 C   0  0  0  0  0  0  0  0  0  0  0  0
   -2.4327   -4.5204    1.8524 C   0  0  0  0  0  0  0  0  0  0  0  0
   -3.1377   -5.2213    0.8865 C   0  0  0  0  0  0  0  0  0  0  0  0
   -3.4498   -6.5314    1.1093 O   0  0  0  0  0  0  0  0  0  0  0  0
   -3.5279   -4.6055   -0.3000 C   0  0  0  0  0  0  0  0  0  0  0  0
   -4.2225   -5.3584   -1.2068 O   0  0  0  0  0  0  0  0  0  0  0  0
   -3.2142   -3.2717   -0.5386 C   0  0  0  0  0  0  0  0  0  0  0  0
   -2.6500   -0.2950    1.1827 O   0  0  0  0  0  0  0  0  0  0  0  0
   -2.3859    1.0478    1.0936 C   0  0  0  0  0  0  0  0  0  0  0  0
   -2.9538    1.8432    2.0934 C   0  0  0  0  0  0  0  0  0  0  0  0
   -2.7450    3.2156    2.0703 C   0  0  0  0  0  0  0  0  0  0  0  0
   -3.2755    4.0331    3.0231 O   0  0  0  0  0  0  0  0  0  0  0  0
   -1.9825    3.8034    1.0681 C   0  0  0  0  0  0  0  0  0  0  0  0
   -1.4120    3.0031    0.0749 C   0  0  0  0  0  0  0  0  0  0  0  0
   -0.6490    3.6039   -0.8861 O   0  0  0  0  0  0  0  0  0  0  0  0
   -1.6084    1.6146    0.0809 C   0  0  0  0  0  0  0  0  0  0  0  0
    0.5438   -3.0307   -1.4535 H   0  0  0  0  0  0  0  0  0  0  0  0
    2.5567   -2.8001   -0.0974 H   0  0  0  0  0  0  0  0  0  0  0  0
    2.4384   -1.3208    1.8705 H   0  0  0  0  0  0  0  0  0  0  0  0
    4.0707   -1.3421    1.2049 H   0  0  0  0  0  0  0  0  0  0  0  0
    1.2512    3.0632    1.4464 H   0  0  0  0  0  0  0  0  0  0  0  0
    2.1679    2.6698   -0.0277 H   0  0  0  0  0  0  0  0  0  0  0  0
    4.3570    4.7207    1.6998 H   0  0  0  0  0  0  0  0  0  0  0  0
    3.4104   -0.2607   -1.6303 H   0  0  0  0  0  0  0  0  0  0  0  0
    5.1006   -1.6923   -2.2472 H   0  0  0  0  0  0  0  0  0  0  0  0
    2.8357   -3.0561   -2.7389 H   0  0  0  0  0  0  0  0  0  0  0  0
    2.9181   -1.7809   -4.6779 H   0  0  0  0  0  0  0  0  0  0  0  0
    1.1885   -0.4970   -3.0951 H   0  0  0  0  0  0  0  0  0  0  0  0
   -0.2208   -1.9531   -4.0763 H   0  0  0  0  0  0  0  0  0  0  0  0
   -1.5550   -2.6310    2.3790 H   0  0  0  0  0  0  0  0  0  0  0  0
   -2.1343   -5.0099    2.7744 H   0  0  0  0  0  0  0  0  0  0  0  0
   -3.9398   -6.8068    0.3090 H   0  0  0  0  0  0  0  0  0  0  0  0
   -4.4279   -4.7976   -1.9746 H   0  0  0  0  0  0  0  0  0  0  0  0
   -3.5191   -2.7869   -1.4611 H   0  0  0  0  0  0  0  0  0  0  0  0
   -3.5484    1.3760    2.8724 H   0  0  0  0  0  0  0  0  0  0  0  0
   -3.7427    3.4915    3.6820 H   0  0  0  0  0  0  0  0  0  0  0  0
   -1.8354    4.8792    1.0821 H   0  0  0  0  0  0  0  0  0  0  0  0
   -0.7051    4.5698   -0.8023 H   0  0  0  0  0  0  0  0  0  0  0  0
  1  2  2  0
  2  3  1  0
  3  4  1  0
  4  5  1  0
  5  6  1  0
  6  7  1  0
  7  8  1  0
  8  9  1  0
  9 10  1  0
 10 11  2  0
 10 12  1  0
 12 13  1  0
 13 14  2  0
 13 15  1  0
  7 16  1  0
 16 17  1  0
 16 18  1  0
 18 19  1  0
 18 20  1  0
 20 21  1  0
  3 22  2  0
 22 23  1  0
 23 24  1  0
 24 25  2  0
 25 26  1  0
 26 27  1  0
 26 28  2  0
 28 29  1  0
 28 30  1  0
 22 31  1  0
 31 32  1  0
 32 33  2  0
 33 34  1  0
 34 35  1  0
 34 36  2  0
 36 37  1  0
 37 38  1  0
 37 39  2  0
 20  5  1  0
 30 23  2  0
 39  2  1  0
 39 32  1  0
  5 40  1  1
  7 41  1  1
  8 42  1  0
  8 43  1  0
 12 44  1  0
 12 45  1  0
 15 46  1  0
 16 47  1  6
 17 48  1  0
 18 49  1  1
 19 50  1  0
 20 51  1  6
 21 52  1  0
 24 53  1  0
 25 54  1  0
 27 55  1  0
 29 56  1  0
 30 57  1  0
 33 58  1  0
 35 59  1  0
 36 60  1  0
 38 61  1  0
M  END
>  <clase>  (15) 
Flavonol

>  <carga>  (15) 
0

>  <InChIKey>  (15) 
NBQPHANHNTWDML-UJKBSQBPSA-N

>  <parte_planta>  (15) 
fruto

$$$$
Isorhamnetín-3-rutinosido
     RDKit          3D

 76 80  0  0  0  0  0  0  0  0999 V2000
   -0.8449    1.8929   -0.0784 O   0  0  0  0  0  0  0  0  0  0  0  0
   -1.6711    0.9938    0.0339 C   0  0  0  0  0  0  0  0  0  0  0  0
   -1.2507   -0.4138    0.2939 C   0  0  0  0  0  0  0  0  0  0  0  0
    0.0913   -0.7151    0.4519 O   0  0  0  0  0  0  0  0  0  0  0  0
    0.6773   -0.2207    1.6619 C   0  0  2  0  0  0  0  0  0  0  0  0
    1.7229    0.7159    1.3911 O   0  0  0  0  0  0  0  0  0  0  0  0
    3.0159    0.1660    1.1008 C   0  0  2  0  0  0  0  0  0  0  0  0
    3.0727   -0.7491   -0.1442 C   0  0  0  0  0  0  0  0  0  0  0  0
    2.3995   -0.2250   -1.2867 O   0  0  0  0  0  0  0  0  0  0  0  0
    3.1541    0.6796   -2.0812 C   0  0  2  0  0  0  0  0  0  0  0  0
    3.3483    1.9599   -1.4709 O   0  0  0  0  0  0  0  0  0  0  0  0
    2.1092    2.6329   -1.2136 C   0  0  1  0  0  0  0  0  0  0  0  0
    2.4341    3.9217   -0.4656 C   0  0  0  0  0  0  0  0  0  0  0  0
    1.3217    2.9161   -2.5019 C   0  0  2  0  0  0  0  0  0  0  0  0
    0.0161    3.4452   -2.2248 O   0  0  0  0  0  0  0  0  0  0  0  0
    1.1821    1.6611   -3.3811 C   0  0  2  0  0  0  0  0  0  0  0  0
    0.1143    0.8305   -2.9052 O   0  0  0  0  0  0  0  0  0  0  0  0
    2.5001    0.8789   -3.4705 C   0  0  1  0  0  0  0  0  0  0  0  0
    3.4135    1.5897   -4.3317 O   0  0  0  0  0  0  0  0  0  0  0  0
    3.5546   -0.5395    2.3629 C   0  0  1  0  0  0  0  0  0  0  0  0
    4.3573    0.3943    3.1120 O   0  0  0  0  0  0  0  0  0  0  0  0
    2.4221   -1.0492    3.2775 C   0  0  2  0  0  0  0  0  0  0  0  0
    2.8755   -2.1990    4.0106 O   0  0  0  0  0  0  0  0  0  0  0  0
    1.1777   -1.4336    2.4808 C   0  0  1  0  0  0  0  0  0  0  0  0
    0.1705   -1.9058    3.3966 O   0  0  0  0  0  0  0  0  0  0  0  0
   -2.1907   -1.3759    0.2497 C   0  0  0  0  0  0  0  0  0  0  0  0
   -1.8553   -2.8048    0.4084 C   0  0  0  0  0  0  0  0  0  0  0  0
   -2.5256   -3.5759    1.3706 C   0  0  0  0  0  0  0  0  0  0  0  0
   -2.1962   -4.9184    1.5501 C   0  0  0  0  0  0  0  0  0  0  0  0
   -1.2034   -5.4869    0.7615 C   0  0  0  0  0  0  0  0  0  0  0  0
   -0.8920   -6.8021    0.9694 O   0  0  0  0  0  0  0  0  0  0  0  0
   -0.5310   -4.7490   -0.2175 C   0  0  0  0  0  0  0  0  0  0  0  0
    0.4218   -5.4430   -0.9170 O   0  0  0  0  0  0  0  0  0  0  0  0
    1.1499   -4.7116   -1.8989 C   0  0  0  0  0  0  0  0  0  0  0  0
   -0.8694   -3.4079   -0.3960 C   0  0  0  0  0  0  0  0  0  0  0  0
   -3.5431   -1.1526    0.0837 O   0  0  0  0  0  0  0  0  0  0  0  0
   -3.9813    0.1353   -0.0839 C   0  0  0  0  0  0  0  0  0  0  0  0
   -5.3627    0.2961   -0.2306 C   0  0  0  0  0  0  0  0  0  0  0  0
   -5.8831    1.5719   -0.4080 C   0  0  0  0  0  0  0  0  0  0  0  0
   -7.2223    1.7822   -0.5554 O   0  0  0  0  0  0  0  0  0  0  0  0
   -5.0494    2.6839   -0.4448 C   0  0  0  0  0  0  0  0  0  0  0  0
   -3.6700    2.5158   -0.3033 C   0  0  0  0  0  0  0  0  0  0  0  0
   -2.8675    3.6198   -0.3445 O   0  0  0  0  0  0  0  0  0  0  0  0
   -3.1251    1.2366   -0.1169 C   0  0  0  0  0  0  0  0  0  0  0  0
   -0.0720    0.3191    2.2542 H   0  0  0  0  0  0  0  0  0  0  0  0
    3.6498    1.0344    0.8909 H   0  0  0  0  0  0  0  0  0  0  0  0
    2.5851   -1.7039    0.0692 H   0  0  0  0  0  0  0  0  0  0  0  0
    4.1132   -0.9929   -0.3919 H   0  0  0  0  0  0  0  0  0  0  0  0
    4.1540    0.2613   -2.2460 H   0  0  0  0  0  0  0  0  0  0  0  0
    1.5034    2.0208   -0.5502 H   0  0  0  0  0  0  0  0  0  0  0  0
    2.9889    3.6986    0.4522 H   0  0  0  0  0  0  0  0  0  0  0  0
    3.0755    4.5720   -1.0694 H   0  0  0  0  0  0  0  0  0  0  0  0
    1.5277    4.4721   -0.1980 H   0  0  0  0  0  0  0  0  0  0  0  0
    1.8647    3.6706   -3.0846 H   0  0  0  0  0  0  0  0  0  0  0  0
   -0.2904    3.0649   -1.3684 H   0  0  0  0  0  0  0  0  0  0  0  0
    0.8767    1.9822   -4.3853 H   0  0  0  0  0  0  0  0  0  0  0  0
   -0.6039    1.4544   -2.6841 H   0  0  0  0  0  0  0  0  0  0  0  0
    2.3100   -0.1010   -3.9239 H   0  0  0  0  0  0  0  0  0  0  0  0
    3.8233    2.2910   -3.7890 H   0  0  0  0  0  0  0  0  0  0  0  0
    4.2388   -1.3515    2.0934 H   0  0  0  0  0  0  0  0  0  0  0  0
    3.8058    1.1758    3.2968 H   0  0  0  0  0  0  0  0  0  0  0  0
    2.1664   -0.2970    4.0352 H   0  0  0  0  0  0  0  0  0  0  0  0
    2.0930   -2.5219    4.4997 H   0  0  0  0  0  0  0  0  0  0  0  0
    1.4060   -2.2903    1.8358 H   0  0  0  0  0  0  0  0  0  0  0  0
   -0.4563   -2.4396    2.8722 H   0  0  0  0  0  0  0  0  0  0  0  0
   -3.3019   -3.1356    1.9926 H   0  0  0  0  0  0  0  0  0  0  0  0
   -2.7076   -5.5190    2.2968 H   0  0  0  0  0  0  0  0  0  0  0  0
   -0.1845   -7.0027    0.3253 H   0  0  0  0  0  0  0  0  0  0  0  0
    1.7205   -3.8965   -1.4395 H   0  0  0  0  0  0  0  0  0  0  0  0
    0.4865   -4.3370   -2.6859 H   0  0  0  0  0  0  0  0  0  0  0  0
    1.8641   -5.3981   -2.3635 H   0  0  0  0  0  0  0  0  0  0  0  0
   -0.3771   -2.8036   -1.1539 H   0  0  0  0  0  0  0  0  0  0  0  0
   -6.0093   -0.5758   -0.2049 H   0  0  0  0  0  0  0  0  0  0  0  0
   -7.6852    0.9274   -0.5474 H   0  0  0  0  0  0  0  0  0  0  0  0
   -5.4887    3.6685   -0.5820 H   0  0  0  0  0  0  0  0  0  0  0  0
   -3.3864    4.4086   -0.5750 H   0  0  0  0  0  0  0  0  0  0  0  0
  1  2  2  0
  2  3  1  0
  3  4  1  0
  4  5  1  0
  5  6  1  0
  6  7  1  0
  7  8  1  0
  8  9  1  0
  9 10  1  0
 10 11  1  0
 11 12  1  0
 12 13  1  0
 12 14  1  0
 14 15  1  0
 14 16  1  0
 16 17  1  0
 16 18  1  0
 18 19  1  0
  7 20  1  0
 20 21  1  0
 20 22  1  0
 22 23  1  0
 22 24  1  0
 24 25  1  0
  3 26  2  0
 26 27  1  0
 27 28  1  0
 28 29  2  0
 29 30  1  0
 30 31  1  0
 30 32  2  0
 32 33  1  0
 33 34  1  0
 32 35  1  0
 26 36  1  0
 36 37  1  0
 37 38  2  0
 38 39  1  0
 39 40  1  0
 39 41  2  0
 41 42  1  0
 42 43  1  0
 42 44  2  0
 24  5  1  0
 18 10  1  0
 35 27  2  0
 44  2  1  0
 44 37  1  0
  5 45  1  1
  7 46  1  6
  8 47  1  0
  8 48  1  0
 10 49  1  6
 12 50  1  1
 13 51  1  0
 13 52  1  0
 13 53  1  0
 14 54  1  6
 15 55  1  0
 16 56  1  6
 17 57  1  0
 18 58  1  6
 19 59  1  0
 20 60  1  6
 21 61  1  0
 22 62  1  1
 23 63  1  0
 24 64  1  6
 25 65  1  0
 28 66  1  0
 29 67  1  0
 31 68  1  0
 34 69  1  0
 34 70  1  0
 34 71  1  0
 35 72  1  0
 38 73  1  0
 40 74  1  0
 41 75  1  0
 43 76  1  0
M  END
>  <clase>  (16) 
Flavonol

>  <carga>  (16) 
0

>  <InChIKey>  (16) 
UIDGLYUNOUKLBM-WDJQYGQPSA-N

>  <parte_planta>  (16) 
fruto

$$$$
Isorhamnetín-3-galactosido
     RDKit          3D

 56 59  0  0  0  0  0  0  0  0999 V2000
   -3.2829   -0.7577    0.3139 O   0  0  0  0  0  0  0  0  0  0  0  0
   -2.4684    0.0999    0.6538 C   0  0  0  0  0  0  0  0  0  0  0  0
   -1.0943    0.1769    0.0741 C   0  0  0  0  0  0  0  0  0  0  0  0
   -0.6961   -0.7045   -0.9190 O   0  0  0  0  0  0  0  0  0  0  0  0
   -0.9328   -2.0878   -0.6253 C   0  0  2  0  0  0  0  0  0  0  0  0
    0.3148   -2.7881   -0.7917 O   0  0  0  0  0  0  0  0  0  0  0  0
    0.1302   -4.2121   -0.6959 C   0  0  2  0  0  0  0  0  0  0  0  0
    1.5016   -4.8694   -0.5065 C   0  0  0  0  0  0  0  0  0  0  0  0
    1.4127   -6.2884   -0.5167 O   0  0  0  0  0  0  0  0  0  0  0  0
   -0.6449   -4.7302   -1.9298 C   0  0  2  0  0  0  0  0  0  0  0  0
    0.2295   -5.3548   -2.8881 O   0  0  0  0  0  0  0  0  0  0  0  0
   -1.4072   -3.5871   -2.6225 C   0  0  2  0  0  0  0  0  0  0  0  0
   -0.5008   -2.9041   -3.5136 O   0  0  0  0  0  0  0  0  0  0  0  0
   -2.0153   -2.6180   -1.6051 C   0  0  1  0  0  0  0  0  0  0  0  0
   -3.0470   -3.2935   -0.8710 O   0  0  0  0  0  0  0  0  0  0  0  0
   -0.2846    1.1604    0.5133 C   0  0  0  0  0  0  0  0  0  0  0  0
    1.0896    1.3449    0.0049 C   0  0  0  0  0  0  0  0  0  0  0  0
    1.3537    1.4945   -1.3605 C   0  0  0  0  0  0  0  0  0  0  0  0
    2.6621    1.6823   -1.8122 C   0  0  0  0  0  0  0  0  0  0  0  0
    3.7234    1.7303   -0.9023 C   0  0  0  0  0  0  0  0  0  0  0  0
    4.9849    1.9220   -1.3925 O   0  0  0  0  0  0  0  0  0  0  0  0
    3.4835    1.5918    0.4685 C   0  0  0  0  0  0  0  0  0  0  0  0
    4.3828    1.6166    1.5000 O   0  0  0  0  0  0  0  0  0  0  0  0
    5.7634    1.7235    1.1863 C   0  0  0  0  0  0  0  0  0  0  0  0
    2.1632    1.4051    0.9054 C   0  0  0  0  0  0  0  0  0  0  0  0
   -0.6150    2.0762    1.4984 O   0  0  0  0  0  0  0  0  0  0  0  0
   -1.8706    2.0371    2.0434 C   0  0  0  0  0  0  0  0  0  0  0  0
   -2.1630    3.0000    3.0121 C   0  0  0  0  0  0  0  0  0  0  0  0
   -3.4243    3.0120    3.5998 C   0  0  0  0  0  0  0  0  0  0  0  0
   -3.7561    3.9320    4.5490 O   0  0  0  0  0  0  0  0  0  0  0  0
   -4.3915    2.0811    3.2345 C   0  0  0  0  0  0  0  0  0  0  0  0
   -4.0928    1.1235    2.2686 C   0  0  0  0  0  0  0  0  0  0  0  0
   -5.0885    0.2394    1.9537 O   0  0  0  0  0  0  0  0  0  0  0  0
   -2.8278    1.0980    1.6707 C   0  0  0  0  0  0  0  0  0  0  0  0
   -1.2300   -2.2295    0.4222 H   0  0  0  0  0  0  0  0  0  0  0  0
   -0.4706   -4.4216    0.1999 H   0  0  0  0  0  0  0  0  0  0  0  0
    2.2090   -4.5485   -1.2799 H   0  0  0  0  0  0  0  0  0  0  0  0
    1.9323   -4.5577    0.4513 H   0  0  0  0  0  0  0  0  0  0  0  0
    1.1607   -6.5248   -1.4344 H   0  0  0  0  0  0  0  0  0  0  0  0
   -1.3421   -5.5069   -1.5952 H   0  0  0  0  0  0  0  0  0  0  0  0
    0.2801   -4.7371   -3.6488 H   0  0  0  0  0  0  0  0  0  0  0  0
   -2.1896   -4.0213   -3.2551 H   0  0  0  0  0  0  0  0  0  0  0  0
    0.1910   -2.4898   -2.9570 H   0  0  0  0  0  0  0  0  0  0  0  0
   -2.4894   -1.7850   -2.1380 H   0  0  0  0  0  0  0  0  0  0  0  0
   -3.5026   -2.5907   -0.3577 H   0  0  0  0  0  0  0  0  0  0  0  0
    0.5441    1.4680   -2.0869 H   0  0  0  0  0  0  0  0  0  0  0  0
    2.8326    1.7925   -2.8794 H   0  0  0  0  0  0  0  0  0  0  0  0
    4.9477    1.9799   -2.3611 H   0  0  0  0  0  0  0  0  0  0  0  0
    6.1004    0.8824    0.5722 H   0  0  0  0  0  0  0  0  0  0  0  0
    5.9912    2.6893    0.7249 H   0  0  0  0  0  0  0  0  0  0  0  0
    6.3190    1.6777    2.1285 H   0  0  0  0  0  0  0  0  0  0  0  0
    1.9821    1.2986    1.9738 H   0  0  0  0  0  0  0  0  0  0  0  0
   -1.4050    3.7252    3.2924 H   0  0  0  0  0  0  0  0  0  0  0  0
   -2.9965    4.5154    4.7136 H   0  0  0  0  0  0  0  0  0  0  0  0
   -5.3734    2.1014    3.6999 H   0  0  0  0  0  0  0  0  0  0  0  0
   -4.7584   -0.3681    1.2582 H   0  0  0  0  0  0  0  0  0  0  0  0
  1  2  2  0
  2  3  1  0
  3  4  1  0
  4  5  1  0
  5  6  1  0
  6  7  1  0
  7  8  1  0
  8  9  1  0
  7 10  1  0
 10 11  1  0
 10 12  1  0
 12 13  1  0
 12 14  1  0
 14 15  1  0
  3 16  2  0
 16 17  1  0
 17 18  1  0
 18 19  2  0
 19 20  1  0
 20 21  1  0
 20 22  2  0
 22 23  1  0
 23 24  1  0
 22 25  1  0
 16 26  1  0
 26 27  1  0
 27 28  2  0
 28 29  1  0
 29 30  1  0
 29 31  2  0
 31 32  1  0
 32 33  1  0
 32 34  2  0
 14  5  1  0
 25 17  2  0
 34  2  1  0
 34 27  1  0
  5 35  1  1
  7 36  1  1
  8 37  1  0
  8 38  1  0
  9 39  1  0
 10 40  1  1
 11 41  1  0
 12 42  1  6
 13 43  1  0
 14 44  1  6
 15 45  1  0
 18 46  1  0
 19 47  1  0
 21 48  1  0
 24 49  1  0
 24 50  1  0
 24 51  1  0
 25 52  1  0
 28 53  1  0
 30 54  1  0
 31 55  1  0
 33 56  1  0
M  END
>  <clase>  (17) 
Flavonol

>  <carga>  (17) 
0

>  <InChIKey>  (17) 
CQLRUIIRRZYHHS-UVHBULKNSA-N

>  <parte_planta>  (17) 
fruto

$$$$
Quercetín-3-rhamnosido
     RDKit          3D

 52 55  0  0  0  0  0  0  0  0999 V2000
   -0.2532    1.2792    2.7435 O   0  0  0  0  0  0  0  0  0  0  0  0
   -0.2167    1.9290    1.7048 C   0  0  0  0  0  0  0  0  0  0  0  0
    0.4476    1.3465    0.5036 C   0  0  0  0  0  0  0  0  0  0  0  0
    1.0269    0.0958    0.6252 O   0  0  0  0  0  0  0  0  0  0  0  0
    0.0428   -0.9480    0.7297 C   0  0  1  0  0  0  0  0  0  0  0  0
    0.0984   -1.7511   -0.4543 O   0  0  0  0  0  0  0  0  0  0  0  0
   -0.9909   -2.6910   -0.5254 C   0  0  1  0  0  0  0  0  0  0  0  0
   -0.5886   -3.7272   -1.5686 C   0  0  0  0  0  0  0  0  0  0  0  0
   -1.2908   -3.3542    0.8368 C   0  0  2  0  0  0  0  0  0  0  0  0
   -2.3617   -2.6457    1.4867 O   0  0  0  0  0  0  0  0  0  0  0  0
   -0.0613   -3.2792    1.7392 C   0  0  2  0  0  0  0  0  0  0  0  0
   -0.3636   -3.8916    3.0047 O   0  0  0  0  0  0  0  0  0  0  0  0
    0.3710   -1.8222    1.9664 C   0  0  1  0  0  0  0  0  0  0  0  0
    1.7812   -1.8496    2.2761 O   0  0  0  0  0  0  0  0  0  0  0  0
    0.5092    2.0773   -0.6246 C   0  0  0  0  0  0  0  0  0  0  0  0
    1.1479    1.5939   -1.8698 C   0  0  0  0  0  0  0  0  0  0  0  0
    0.4745    1.7471   -3.0973 C   0  0  0  0  0  0  0  0  0  0  0  0
    1.0543    1.3190   -4.2947 C   0  0  0  0  0  0  0  0  0  0  0  0
    2.3105    0.7371   -4.2654 C   0  0  0  0  0  0  0  0  0  0  0  0
    2.8786    0.3156   -5.4328 O   0  0  0  0  0  0  0  0  0  0  0  0
    2.9925    0.5787   -3.0631 C   0  0  0  0  0  0  0  0  0  0  0  0
    4.2266   -0.0108   -3.1060 O   0  0  0  0  0  0  0  0  0  0  0  0
    2.4263    1.0105   -1.8672 C   0  0  0  0  0  0  0  0  0  0  0  0
   -0.0499    3.3361   -0.7634 O   0  0  0  0  0  0  0  0  0  0  0  0
   -0.6806    3.9059    0.3122 C   0  0  0  0  0  0  0  0  0  0  0  0
   -1.2103    5.1819    0.0975 C   0  0  0  0  0  0  0  0  0  0  0  0
   -1.8667    5.8284    1.1364 C   0  0  0  0  0  0  0  0  0  0  0  0
   -2.3997    7.0725    0.9780 O   0  0  0  0  0  0  0  0  0  0  0  0
   -2.0020    5.2224    2.3801 C   0  0  0  0  0  0  0  0  0  0  0  0
   -1.4706    3.9474    2.5890 C   0  0  0  0  0  0  0  0  0  0  0  0
   -1.6167    3.3706    3.8178 O   0  0  0  0  0  0  0  0  0  0  0  0
   -0.8033    3.2787    1.5534 C   0  0  0  0  0  0  0  0  0  0  0  0
   -0.9748   -0.5411    0.8139 H   0  0  0  0  0  0  0  0  0  0  0  0
   -1.8728   -2.1487   -0.8876 H   0  0  0  0  0  0  0  0  0  0  0  0
   -1.3847   -4.4606   -1.7286 H   0  0  0  0  0  0  0  0  0  0  0  0
   -0.3668   -3.2407   -2.5248 H   0  0  0  0  0  0  0  0  0  0  0  0
    0.3220   -4.2564   -1.2668 H   0  0  0  0  0  0  0  0  0  0  0  0
   -1.6456   -4.3838    0.7190 H   0  0  0  0  0  0  0  0  0  0  0  0
   -2.4133   -3.0355    2.3844 H   0  0  0  0  0  0  0  0  0  0  0  0
    0.7566   -3.8622    1.2983 H   0  0  0  0  0  0  0  0  0  0  0  0
    0.4391   -3.7638    3.5483 H   0  0  0  0  0  0  0  0  0  0  0  0
   -0.1103   -1.3959    2.8535 H   0  0  0  0  0  0  0  0  0  0  0  0
    2.0776   -0.9231    2.1804 H   0  0  0  0  0  0  0  0  0  0  0  0
   -0.5158    2.1968   -3.1299 H   0  0  0  0  0  0  0  0  0  0  0  0
    0.5289    1.4358   -5.2374 H   0  0  0  0  0  0  0  0  0  0  0  0
    3.7410   -0.0582   -5.1620 H   0  0  0  0  0  0  0  0  0  0  0  0
    4.5254   -0.1475   -2.1900 H   0  0  0  0  0  0  0  0  0  0  0  0
    2.9703    0.8968   -0.9345 H   0  0  0  0  0  0  0  0  0  0  0  0
   -1.1007    5.6491   -0.8767 H   0  0  0  0  0  0  0  0  0  0  0  0
   -2.2336    7.3804    0.0708 H   0  0  0  0  0  0  0  0  0  0  0  0
   -2.5218    5.7549    3.1713 H   0  0  0  0  0  0  0  0  0  0  0  0
   -2.1007    3.9646    4.4141 H   0  0  0  0  0  0  0  0  0  0  0  0
  1  2  2  0
  2  3  1  0
  3  4  1  0
  4  5  1  0
  5  6  1  0
  6  7  1  0
  7  8  1  0
  7  9  1  0
  9 10  1  0
  9 11  1  0
 11 12  1  0
 11 13  1  0
 13 14  1  0
  3 15  2  0
 15 16  1  0
 16 17  1  0
 17 18  2  0
 18 19  1  0
 19 20  1  0
 19 21  2  0
 21 22  1  0
 21 23  1  0
 15 24  1  0
 24 25  1  0
 25 26  2  0
 26 27  1  0
 27 28  1  0
 27 29  2  0
 29 30  1  0
 30 31  1  0
 30 32  2  0
 13  5  1  0
 23 16  2  0
 32  2  1  0
 32 25  1  0
  5 33  1  1
  7 34  1  6
  8 35  1  0
  8 36  1  0
  8 37  1  0
  9 38  1  6
 10 39  1  0
 11 40  1  6
 12 41  1  0
 13 42  1  1
 14 43  1  0
 17 44  1  0
 18 45  1  0
 20 46  1  0
 22 47  1  0
 23 48  1  0
 26 49  1  0
 28 50  1  0
 29 51  1  0
 31 52  1  0
M  END
>  <clase>  (18) 
Flavonol

>  <carga>  (18) 
0

>  <InChIKey>  (18) 
OXGUCUVFOIWWQJ-VHQAYEMVSA-N

>  <parte_planta>  (18) 
fruto

$$$$
Kaempferol-3-glucósido
     RDKit          3D

 52 55  0  0  0  0  0  0  0  0999 V2000
    1.2788    1.7003    1.3661 O   0  0  0  0  0  0  0  0  0  0  0  0
    0.9797    1.5138    0.1879 C   0  0  0  0  0  0  0  0  0  0  0  0
   -0.0474    0.5176   -0.1976 C   0  0  0  0  0  0  0  0  0  0  0  0
   -0.6864   -0.1591    0.8202 O   0  0  0  0  0  0  0  0  0  0  0  0
    0.1181   -1.2388    1.3340 C   0  0  2  0  0  0  0  0  0  0  0  0
   -0.3167   -2.4343    0.6889 O   0  0  0  0  0  0  0  0  0  0  0  0
   -0.1945   -3.6580    1.4348 C   0  0  2  0  0  0  0  0  0  0  0  0
   -1.5966   -4.0652    1.9100 C   0  0  0  0  0  0  0  0  0  0  0  0
   -2.4738   -4.1709    0.7850 O   0  0  0  0  0  0  0  0  0  0  0  0
    0.8382   -3.6085    2.5675 C   0  0  1  0  0  0  0  0  0  0  0  0
    2.1392   -3.4770    1.9666 O   0  0  0  0  0  0  0  0  0  0  0  0
    0.6238   -2.4229    3.5137 C   0  0  2  0  0  0  0  0  0  0  0  0
   -0.1175   -2.8481    4.6655 O   0  0  0  0  0  0  0  0  0  0  0  0
   -0.1048   -1.2466    2.8552 C   0  0  1  0  0  0  0  0  0  0  0  0
    0.3404   -0.0415    3.5047 O   0  0  0  0  0  0  0  0  0  0  0  0
   -0.3463    0.3722   -1.5023 C   0  0  0  0  0  0  0  0  0  0  0  0
   -1.3551   -0.5939   -1.9839 C   0  0  0  0  0  0  0  0  0  0  0  0
   -2.6507   -0.6390   -1.4441 C   0  0  0  0  0  0  0  0  0  0  0  0
   -3.5824   -1.5783   -1.8962 C   0  0  0  0  0  0  0  0  0  0  0  0
   -3.2223   -2.4678   -2.9017 C   0  0  0  0  0  0  0  0  0  0  0  0
   -4.0944   -3.4056   -3.3671 O   0  0  0  0  0  0  0  0  0  0  0  0
   -1.9538   -2.4279   -3.4653 C   0  0  0  0  0  0  0  0  0  0  0  0
   -1.0221   -1.4931   -3.0085 C   0  0  0  0  0  0  0  0  0  0  0  0
    0.2856    1.0615   -2.5275 O   0  0  0  0  0  0  0  0  0  0  0  0
    1.2434    1.9900   -2.2060 C   0  0  0  0  0  0  0  0  0  0  0  0
    1.8369    2.6743   -3.2686 C   0  0  0  0  0  0  0  0  0  0  0  0
    2.8160    3.6275   -3.0008 C   0  0  0  0  0  0  0  0  0  0  0  0
    3.4232    4.3211   -4.0053 O   0  0  0  0  0  0  0  0  0  0  0  0
    3.2085    3.9046   -1.6942 C   0  0  0  0  0  0  0  0  0  0  0  0
    2.6133    3.2193   -0.6387 C   0  0  0  0  0  0  0  0  0  0  0  0
    3.0405    3.5345    0.6224 O   0  0  0  0  0  0  0  0  0  0  0  0
    1.6288    2.2601   -0.8944 C   0  0  0  0  0  0  0  0  0  0  0  0
    1.1831   -1.0807    1.1164 H   0  0  0  0  0  0  0  0  0  0  0  0
    0.1324   -4.3961    0.6916 H   0  0  0  0  0  0  0  0  0  0  0  0
   -2.0372   -3.3259    2.5825 H   0  0  0  0  0  0  0  0  0  0  0  0
   -1.5772   -5.0333    2.4190 H   0  0  0  0  0  0  0  0  0  0  0  0
   -2.2180   -3.4507    0.1728 H   0  0  0  0  0  0  0  0  0  0  0  0
    0.8317   -4.5588    3.1140 H   0  0  0  0  0  0  0  0  0  0  0  0
    2.7970   -3.6918    2.6535 H   0  0  0  0  0  0  0  0  0  0  0  0
    1.5963   -2.0870    3.8959 H   0  0  0  0  0  0  0  0  0  0  0  0
   -0.2023   -2.0567    5.2339 H   0  0  0  0  0  0  0  0  0  0  0  0
   -1.1799   -1.3003    3.0626 H   0  0  0  0  0  0  0  0  0  0  0  0
    0.3837    0.6714    2.8309 H   0  0  0  0  0  0  0  0  0  0  0  0
   -2.9450    0.0539   -0.6585 H   0  0  0  0  0  0  0  0  0  0  0  0
   -4.5739   -1.5984   -1.4548 H   0  0  0  0  0  0  0  0  0  0  0  0
   -4.8910   -3.3923   -2.8109 H   0  0  0  0  0  0  0  0  0  0  0  0
   -1.6865   -3.1284   -4.2514 H   0  0  0  0  0  0  0  0  0  0  0  0
   -0.0280   -1.4849   -3.4497 H   0  0  0  0  0  0  0  0  0  0  0  0
    1.5278    2.4557   -4.2862 H   0  0  0  0  0  0  0  0  0  0  0  0
    3.0570    4.0386   -4.8598 H   0  0  0  0  0  0  0  0  0  0  0  0
    3.9739    4.6509   -1.4996 H   0  0  0  0  0  0  0  0  0  0  0  0
    2.5421    2.9887    1.2693 H   0  0  0  0  0  0  0  0  0  0  0  0
  1  2  2  0
  2  3  1  0
  3  4  1  0
  4  5  1  0
  5  6  1  0
  6  7  1  0
  7  8  1  0
  8  9  1  0
  7 10  1  0
 10 11  1  0
 10 12  1  0
 12 13  1  0
 12 14  1  0
 14 15  1  0
  3 16  2  0
 16 17  1  0
 17 18  1  0
 18 19  2  0
 19 20  1  0
 20 21  1  0
 20 22  2  0
 22 23  1  0
 16 24  1  0
 24 25  1  0
 25 26  2  0
 26 27  1  0
 27 28  1  0
 27 29  2  0
 29 30  1  0
 30 31  1  0
 30 32  2  0
 14  5  1  0
 23 17  2  0
 32  2  1  0
 32 25  1  0
  5 33  1  1
  7 34  1  6
  8 35  1  0
  8 36  1  0
  9 37  1  0
 10 38  1  1
 11 39  1  0
 12 40  1  1
 13 41  1  0
 14 42  1  6
 15 43  1  0
 18 44  1  0
 19 45  1  0
 21 46  1  0
 22 47  1  0
 23 48  1  0
 26 49  1  0
 28 50  1  0
 29 51  1  0
 31 52  1  0
M  END
>  <clase>  (19) 
Flavonol

>  <carga>  (19) 
0

>  <InChIKey>  (19) 
JPUKWEQWGBDDQB-QSOFNFLRSA-N

>  <parte_planta>  (19) 
hojas

$$$$
Quercetina
     RDKit          3D

 32 34  0  0  0  0  0  0  0  0999 V2000
    0.9340    1.8517    2.4646 O   0  0  0  0  0  0  0  0  0  0  0  0
    0.8551    0.9787    1.6027 C   0  0  0  0  0  0  0  0  0  0  0  0
   -0.4651    0.4641    1.1721 C   0  0  0  0  0  0  0  0  0  0  0  0
   -1.5822    1.0189    1.7693 O   0  0  0  0  0  0  0  0  0  0  0  0
   -0.5040   -0.4906    0.2241 C   0  0  0  0  0  0  0  0  0  0  0  0
   -1.7630   -1.0668   -0.2951 C   0  0  0  0  0  0  0  0  0  0  0  0
   -2.7836   -1.5096    0.5670 C   0  0  0  0  0  0  0  0  0  0  0  0
   -3.9626   -2.0729    0.0642 C   0  0  0  0  0  0  0  0  0  0  0  0
   -4.1177   -2.2014   -1.3089 C   0  0  0  0  0  0  0  0  0  0  0  0
   -5.2444   -2.7425   -1.8629 O   0  0  0  0  0  0  0  0  0  0  0  0
   -3.1110   -1.7771   -2.1708 C   0  0  0  0  0  0  0  0  0  0  0  0
   -3.2700   -1.9108   -3.5210 O   0  0  0  0  0  0  0  0  0  0  0  0
   -1.9391   -1.2167   -1.6794 C   0  0  0  0  0  0  0  0  0  0  0  0
    0.6258   -1.0218   -0.3873 O   0  0  0  0  0  0  0  0  0  0  0  0
    1.8627   -0.5698   -0.0048 C   0  0  0  0  0  0  0  0  0  0  0  0
    2.9692   -1.1365   -0.6364 C   0  0  0  0  0  0  0  0  0  0  0  0
    4.2494   -0.7142   -0.2874 C   0  0  0  0  0  0  0  0  0  0  0  0
    5.3034   -1.2942   -0.9287 O   0  0  0  0  0  0  0  0  0  0  0  0
    4.4433    0.2658    0.6826 C   0  0  0  0  0  0  0  0  0  0  0  0
    3.3341    0.8285    1.3097 C   0  0  0  0  0  0  0  0  0  0  0  0
    3.5815    1.7872    2.2548 O   0  0  0  0  0  0  0  0  0  0  0  0
    2.0443    0.4105    0.9661 C   0  0  0  0  0  0  0  0  0  0  0  0
   -1.2360    1.7030    2.3802 H   0  0  0  0  0  0  0  0  0  0  0  0
   -2.6669   -1.4177    1.6452 H   0  0  0  0  0  0  0  0  0  0  0  0
   -4.7321   -2.3992    0.7560 H   0  0  0  0  0  0  0  0  0  0  0  0
   -5.8523   -2.9776   -1.1409 H   0  0  0  0  0  0  0  0  0  0  0  0
   -4.1525   -2.3196   -3.6239 H   0  0  0  0  0  0  0  0  0  0  0  0
   -1.1729   -0.8955   -2.3799 H   0  0  0  0  0  0  0  0  0  0  0  0
    2.8377   -1.9024   -1.3961 H   0  0  0  0  0  0  0  0  0  0  0  0
    6.1293   -0.9049   -0.5945 H   0  0  0  0  0  0  0  0  0  0  0  0
    5.4379    0.6005    0.9602 H   0  0  0  0  0  0  0  0  0  0  0  0
    2.7211    2.1019    2.6118 H   0  0  0  0  0  0  0  0  0  0  0  0
  1  2  2  0
  2  3  1  0
  3  4  1  0
  3  5  2  0
  5  6  1  0
  6  7  1  0
  7  8  2  0
  8  9  1  0
  9 10  1  0
  9 11  2  0
 11 12  1  0
 11 13  1  0
  5 14  1  0
 14 15  1  0
 15 16  2  0
 16 17  1  0
 17 18  1  0
 17 19  2  0
 19 20  1  0
 20 21  1  0
 20 22  2  0
 13  6  2  0
 22  2  1  0
 22 15  1  0
  4 23  1  0
  7 24  1  0
  8 25  1  0
 10 26  1  0
 12 27  1  0
 13 28  1  0
 16 29  1  0
 18 30  1  0
 19 31  1  0
 21 32  1  0
M  END
>  <clase>  (20) 
Flavonol

>  <carga>  (20) 
0

>  <InChIKey>  (20) 
REFJWTPEDVJJIY-UHFFFAOYSA-N

>  <parte_planta>  (20) 
hojas

$$$$
Isorhamnetina
     RDKit          3D

 35 37  0  0  0  0  0  0  0  0999 V2000
   -2.0862    2.2446    2.3688 O   0  0  0  0  0  0  0  0  0  0  0  0
   -1.6833    1.2388    1.7888 C   0  0  0  0  0  0  0  0  0  0  0  0
   -0.3640    1.2378    1.1159 C   0  0  0  0  0  0  0  0  0  0  0  0
    0.3702    2.4081    1.1657 O   0  0  0  0  0  0  0  0  0  0  0  0
    0.0358    0.1171    0.4874 C   0  0  0  0  0  0  0  0  0  0  0  0
    1.3256    0.0070   -0.2271 C   0  0  0  0  0  0  0  0  0  0  0  0
    2.5310    0.3896    0.3777 C   0  0  0  0  0  0  0  0  0  0  0  0
    3.7427    0.2533   -0.3012 C   0  0  0  0  0  0  0  0  0  0  0  0
    3.7538   -0.2748   -1.5908 C   0  0  0  0  0  0  0  0  0  0  0  0
    4.9421   -0.4102   -2.2583 O   0  0  0  0  0  0  0  0  0  0  0  0
    2.5664   -0.6720   -2.2193 C   0  0  0  0  0  0  0  0  0  0  0  0
    2.6932   -1.1810   -3.4852 O   0  0  0  0  0  0  0  0  0  0  0  0
    1.5028   -1.5339   -4.1739 C   0  0  0  0  0  0  0  0  0  0  0  0
    1.3583   -0.5307   -1.5272 C   0  0  0  0  0  0  0  0  0  0  0  0
   -0.7205   -1.0470    0.4197 O   0  0  0  0  0  0  0  0  0  0  0  0
   -1.9414   -1.0822    1.0449 C   0  0  0  0  0  0  0  0  0  0  0  0
   -2.6562   -2.2789    0.9658 C   0  0  0  0  0  0  0  0  0  0  0  0
   -3.9026   -2.3677    1.5807 C   0  0  0  0  0  0  0  0  0  0  0  0
   -4.6368   -3.5154    1.5313 O   0  0  0  0  0  0  0  0  0  0  0  0
   -4.4423   -1.2839    2.2684 C   0  0  0  0  0  0  0  0  0  0  0  0
   -3.7248   -0.0935    2.3444 C   0  0  0  0  0  0  0  0  0  0  0  0
   -4.3037    0.9373    3.0331 O   0  0  0  0  0  0  0  0  0  0  0  0
   -2.4722    0.0067    1.7323 C   0  0  0  0  0  0  0  0  0  0  0  0
   -0.1888    3.0450    1.6591 H   0  0  0  0  0  0  0  0  0  0  0  0
    2.5367    0.7985    1.3860 H   0  0  0  0  0  0  0  0  0  0  0  0
    4.6607    0.5610    0.1892 H   0  0  0  0  0  0  0  0  0  0  0  0
    5.6591   -0.0687   -1.7026 H   0  0  0  0  0  0  0  0  0  0  0  0
    1.7848   -1.8891   -5.1698 H   0  0  0  0  0  0  0  0  0  0  0  0
    0.9809   -2.3513   -3.6655 H   0  0  0  0  0  0  0  0  0  0  0  0
    0.8478   -0.6660   -4.3039 H   0  0  0  0  0  0  0  0  0  0  0  0
    0.4206   -0.8303   -1.9842 H   0  0  0  0  0  0  0  0  0  0  0  0
   -2.2324   -3.1219    0.4289 H   0  0  0  0  0  0  0  0  0  0  0  0
   -4.1453   -4.1922    1.0370 H   0  0  0  0  0  0  0  0  0  0  0  0
   -5.4162   -1.3669    2.7431 H   0  0  0  0  0  0  0  0  0  0  0  0
   -3.6989    1.7112    3.0073 H   0  0  0  0  0  0  0  0  0  0  0  0
  1  2  2  0
  2  3  1  0
  3  4  1  0
  3  5  2  0
  5  6  1  0
  6  7  1  0
  7  8  2  0
  8  9  1  0
  9 10  1  0
  9 11  2  0
 11 12  1  0
 12 13  1  0
 11 14  1  0
  5 15  1  0
 15 16  1  0
 16 17  2  0
 17 18  1  0
 18 19  1  0
 18 20  2  0
 20 21  1  0
 21 22  1  0
 21 23  2  0
 14  6  2  0
 23  2  1  0
 23 16  1  0
  4 24  1  0
  7 25  1  0
  8 26  1  0
 10 27  1  0
 13 28  1  0
 13 29  1  0
 13 30  1  0
 14 31  1  0
 17 32  1  0
 19 33  1  0
 20 34  1  0
 22 35  1  0
M  END
>  <clase>  (21) 
Flavonol

>  <carga>  (21) 
0

>  <InChIKey>  (21) 
IZQSVPBOUDKVDZ-UHFFFAOYSA-N

>  <parte_planta>  (21) 
hojas

$$$$
Luteolina
     RDKit          3D

 31 33  0  0  0  0  0  0  0  0999 V2000
   -0.7881   -2.1784   -3.4925 O   0  0  0  0  0  0  0  0  0  0  0  0
   -0.7499   -1.5612   -2.4337 C   0  0  0  0  0  0  0  0  0  0  0  0
    0.5039   -1.3862   -1.6873 C   0  0  0  0  0  0  0  0  0  0  0  0
    0.4821   -0.7082   -0.5304 C   0  0  0  0  0  0  0  0  0  0  0  0
    1.7075   -0.4880    0.2623 C   0  0  0  0  0  0  0  0  0  0  0  0
    2.6357   -1.5232    0.4829 C   0  0  0  0  0  0  0  0  0  0  0  0
    3.7840   -1.3061    1.2517 C   0  0  0  0  0  0  0  0  0  0  0  0
    4.0022   -0.0550    1.8065 C   0  0  0  0  0  0  0  0  0  0  0  0
    5.0896    0.1311    2.6088 O   0  0  0  0  0  0  0  0  0  0  0  0
    3.1072    0.9837    1.5759 C   0  0  0  0  0  0  0  0  0  0  0  0
    3.3612    2.2361    2.0563 O   0  0  0  0  0  0  0  0  0  0  0  0
    1.9550    0.7729    0.8283 C   0  0  0  0  0  0  0  0  0  0  0  0
   -0.6561   -0.1348    0.0160 O   0  0  0  0  0  0  0  0  0  0  0  0
   -1.8469   -0.2778   -0.6514 C   0  0  0  0  0  0  0  0  0  0  0  0
   -2.9743    0.3032   -0.0718 C   0  0  0  0  0  0  0  0  0  0  0  0
   -4.2079    0.1888   -0.7074 C   0  0  0  0  0  0  0  0  0  0  0  0
   -5.2850    0.7711   -0.1073 O   0  0  0  0  0  0  0  0  0  0  0  0
   -4.3349   -0.4965   -1.9130 C   0  0  0  0  0  0  0  0  0  0  0  0
   -3.2051   -1.0745   -2.4872 C   0  0  0  0  0  0  0  0  0  0  0  0
   -3.3854   -1.7359   -3.6723 O   0  0  0  0  0  0  0  0  0  0  0  0
   -1.9605   -0.9658   -1.8573 C   0  0  0  0  0  0  0  0  0  0  0  0
    1.3967   -1.8131   -2.1250 H   0  0  0  0  0  0  0  0  0  0  0  0
    2.4652   -2.5180    0.0766 H   0  0  0  0  0  0  0  0  0  0  0  0
    4.4860   -2.1150    1.4318 H   0  0  0  0  0  0  0  0  0  0  0  0
    4.7932    0.7118    3.3341 H   0  0  0  0  0  0  0  0  0  0  0  0
    4.3261    2.3608    1.9908 H   0  0  0  0  0  0  0  0  0  0  0  0
    1.2658    1.5990    0.6715 H   0  0  0  0  0  0  0  0  0  0  0  0
   -2.8952    0.8415    0.8686 H   0  0  0  0  0  0  0  0  0  0  0  0
   -6.0728    0.6140   -0.6551 H   0  0  0  0  0  0  0  0  0  0  0  0
   -5.2927   -0.5902   -2.4150 H   0  0  0  0  0  0  0  0  0  0  0  0
   -2.5136   -2.0896   -3.9620 H   0  0  0  0  0  0  0  0  0  0  0  0
  1  2  2  0
  2  3  1  0
  3  4  2  0
  4  5  1  0
  5  6  1  0
  6  7  2  0
  7  8  1  0
  8  9  1  0
  8 10  2  0
 10 11  1  0
 10 12  1  0
  4 13  1  0
 13 14  1  0
 14 15  2  0
 15 16  1  0
 16 17  1  0
 16 18  2  0
 18 19  1  0
 19 20  1  0
 19 21  2  0
 21  2  1  0
 12  5  2  0
 21 14  1  0
  3 22  1  0
  6 23  1  0
  7 24  1  0
  9 25  1  0
 11 26  1  0
 12 27  1  0
 15 28  1  0
 17 29  1  0
 18 30  1  0
 20 31  1  0
M  END
>  <clase>  (22) 
Flavona

>  <carga>  (22) 
0

>  <InChIKey>  (22) 
IQPNAANSBPBGFQ-UHFFFAOYSA-N

>  <parte_planta>  (22) 
hojas

$$$$
Vitexina
     RDKit          3D

 51 54  0  0  0  0  0  0  0  0999 V2000
    1.1193    4.1773   -1.8780 O   0  0  0  0  0  0  0  0  0  0  0  0
    0.8473    3.0673   -1.4329 C   0  0  0  0  0  0  0  0  0  0  0  0
    1.1564    2.7060   -0.0436 C   0  0  0  0  0  0  0  0  0  0  0  0
    0.8507    1.4733    0.3802 C   0  0  0  0  0  0  0  0  0  0  0  0
    1.1398    1.0241    1.7539 C   0  0  0  0  0  0  0  0  0  0  0  0
    0.8015    1.8073    2.8672 C   0  0  0  0  0  0  0  0  0  0  0  0
    1.0596    1.3487    4.1615 C   0  0  0  0  0  0  0  0  0  0  0  0
    1.6545    0.1072    4.3484 C   0  0  0  0  0  0  0  0  0  0  0  0
    1.8878   -0.2984    5.6282 O   0  0  0  0  0  0  0  0  0  0  0  0
    1.9939   -0.6901    3.2618 C   0  0  0  0  0  0  0  0  0  0  0  0
    1.7322   -0.2317    1.9676 C   0  0  0  0  0  0  0  0  0  0  0  0
    0.2675    0.5016   -0.4092 O   0  0  0  0  0  0  0  0  0  0  0  0
   -0.0962    0.8023   -1.7007 C   0  0  0  0  0  0  0  0  0  0  0  0
   -0.7469   -0.1967   -2.4529 C   0  0  0  0  0  0  0  0  0  0  0  0
   -1.1755   -1.5368   -1.8618 C   0  0  2  0  0  0  0  0  0  0  0  0
   -1.4640   -1.3878   -0.4661 O   0  0  0  0  0  0  0  0  0  0  0  0
   -1.8457   -2.5920    0.1982 C   0  0  2  0  0  0  0  0  0  0  0  0
   -2.1212   -2.2401    1.6675 C   0  0  0  0  0  0  0  0  0  0  0  0
   -2.4492   -3.4050    2.4215 O   0  0  0  0  0  0  0  0  0  0  0  0
   -0.7485   -3.6612    0.0749 C   0  0  1  0  0  0  0  0  0  0  0  0
   -1.1278   -4.9190    0.6468 O   0  0  0  0  0  0  0  0  0  0  0  0
   -0.4513   -3.9037   -1.4029 C   0  0  2  0  0  0  0  0  0  0  0  0
    0.6414   -4.8260   -1.5451 O   0  0  0  0  0  0  0  0  0  0  0  0
   -0.0980   -2.6053   -2.1254 C   0  0  1  0  0  0  0  0  0  0  0  0
    0.0053   -2.8909   -3.5363 O   0  0  0  0  0  0  0  0  0  0  0  0
   -0.9881    0.0737   -3.8114 C   0  0  0  0  0  0  0  0  0  0  0  0
   -1.4744   -0.8908   -4.6519 O   0  0  0  0  0  0  0  0  0  0  0  0
   -0.7090    1.3144   -4.3803 C   0  0  0  0  0  0  0  0  0  0  0  0
   -0.1239    2.3056   -3.6038 C   0  0  0  0  0  0  0  0  0  0  0  0
    0.1336    3.5016   -4.2175 O   0  0  0  0  0  0  0  0  0  0  0  0
    0.1967    2.0474   -2.2684 C   0  0  0  0  0  0  0  0  0  0  0  0
    1.6332    3.4595    0.5693 H   0  0  0  0  0  0  0  0  0  0  0  0
    0.3208    2.7750    2.7426 H   0  0  0  0  0  0  0  0  0  0  0  0
    0.7951    1.9590    5.0208 H   0  0  0  0  0  0  0  0  0  0  0  0
    2.3574   -1.1485    5.6070 H   0  0  0  0  0  0  0  0  0  0  0  0
    2.4575   -1.6621    3.3979 H   0  0  0  0  0  0  0  0  0  0  0  0
    2.0009   -0.8610    1.1213 H   0  0  0  0  0  0  0  0  0  0  0  0
   -2.1175   -1.8286   -2.3457 H   0  0  0  0  0  0  0  0  0  0  0  0
   -2.7784   -2.9743   -0.2376 H   0  0  0  0  0  0  0  0  0  0  0  0
   -2.9516   -1.5282    1.7321 H   0  0  0  0  0  0  0  0  0  0  0  0
   -1.2459   -1.7631    2.1223 H   0  0  0  0  0  0  0  0  0  0  0  0
   -2.7175   -3.0907    3.3059 H   0  0  0  0  0  0  0  0  0  0  0  0
    0.1684   -3.3367    0.5823 H   0  0  0  0  0  0  0  0  0  0  0  0
   -1.6087   -4.7106    1.4799 H   0  0  0  0  0  0  0  0  0  0  0  0
   -1.3072   -4.3878   -1.8907 H   0  0  0  0  0  0  0  0  0  0  0  0
    0.4312   -5.5552   -0.9246 H   0  0  0  0  0  0  0  0  0  0  0  0
    0.8887   -2.2562   -1.7949 H   0  0  0  0  0  0  0  0  0  0  0  0
    0.5972   -3.6731   -3.5828 H   0  0  0  0  0  0  0  0  0  0  0  0
   -0.9805   -1.7195   -4.4561 H   0  0  0  0  0  0  0  0  0  0  0  0
   -0.9278    1.4978   -5.4286 H   0  0  0  0  0  0  0  0  0  0  0  0
    0.5540    4.1015   -3.5608 H   0  0  0  0  0  0  0  0  0  0  0  0
  1  2  2  0
  2  3  1  0
  3  4  2  0
  4  5  1  0
  5  6  1  0
  6  7  2  0
  7  8  1  0
  8  9  1  0
  8 10  2  0
 10 11  1  0
  4 12  1  0
 12 13  1  0
 13 14  1  0
 14 15  1  0
 15 16  1  0
 16 17  1  0
 17 18  1  0
 18 19  1  0
 17 20  1  0
 20 21  1  0
 20 22  1  0
 22 23  1  0
 22 24  1  0
 24 25  1  0
 14 26  2  0
 26 27  1  0
 26 28  1  0
 28 29  2  0
 29 30  1  0
 29 31  1  0
 31  2  1  0
 11  5  2  0
 31 13  2  0
 24 15  1  0
  3 32  1  0
  6 33  1  0
  7 34  1  0
  9 35  1  0
 10 36  1  0
 11 37  1  0
 15 38  1  6
 17 39  1  6
 18 40  1  0
 18 41  1  0
 19 42  1  0
 20 43  1  1
 21 44  1  0
 22 45  1  6
 23 46  1  0
 24 47  1  1
 25 48  1  0
 27 49  1  0
 28 50  1  0
 30 51  1  0
M  END
>  <clase>  (23) 
Flavona

>  <carga>  (23) 
0

>  <InChIKey>  (23) 
SGEWCQFRYRRZDC-VPRICQMDSA-N

>  <parte_planta>  (23) 
hojas

$$$$
Catequina
     RDKit          3D

 35 37  0  0  0  0  0  0  0  0999 V2000
   -2.5985    0.0285    1.1757 O   0  0  0  0  0  0  0  0  0  0  0  0
   -1.2380    0.3246    0.8417 C   0  0  1  0  0  0  0  0  0  0  0  0
   -0.4848    0.5944    2.1421 C   0  0  0  0  0  0  0  0  0  0  0  0
    1.0040    0.5685    1.9551 C   0  0  0  0  0  0  0  0  0  0  0  0
    1.8823    1.0712    2.9257 C   0  0  0  0  0  0  0  0  0  0  0  0
    1.4563    1.5935    4.1149 O   0  0  0  0  0  0  0  0  0  0  0  0
    3.2611    1.0660    2.7231 C   0  0  0  0  0  0  0  0  0  0  0  0
    3.7792    0.5423    1.5473 C   0  0  0  0  0  0  0  0  0  0  0  0
    5.1326    0.5570    1.3820 O   0  0  0  0  0  0  0  0  0  0  0  0
    2.9366    0.0157    0.5769 C   0  0  0  0  0  0  0  0  0  0  0  0
    1.5555    0.0162    0.7899 C   0  0  0  0  0  0  0  0  0  0  0  0
    0.8119   -0.5245   -0.2251 O   0  0  0  0  0  0  0  0  0  0  0  0
   -0.5463   -0.8407    0.1115 C   0  0  2  0  0  0  0  0  0  0  0  0
   -1.2705   -1.1880   -1.1828 C   0  0  0  0  0  0  0  0  0  0  0  0
   -1.1651   -0.3588   -2.3167 C   0  0  0  0  0  0  0  0  0  0  0  0
   -1.8572   -0.6623   -3.4907 C   0  0  0  0  0  0  0  0  0  0  0  0
   -2.6555   -1.7942   -3.5320 C   0  0  0  0  0  0  0  0  0  0  0  0
   -3.3345   -2.0891   -4.6790 O   0  0  0  0  0  0  0  0  0  0  0  0
   -2.7700   -2.6263   -2.4223 C   0  0  0  0  0  0  0  0  0  0  0  0
   -3.5753   -3.7260   -2.5343 O   0  0  0  0  0  0  0  0  0  0  0  0
   -2.0861   -2.3326   -1.2470 C   0  0  0  0  0  0  0  0  0  0  0  0
   -3.0987    0.0043    0.3384 H   0  0  0  0  0  0  0  0  0  0  0  0
   -1.2231    1.2333    0.2256 H   0  0  0  0  0  0  0  0  0  0  0  0
   -0.8092    1.5684    2.5289 H   0  0  0  0  0  0  0  0  0  0  0  0
   -0.7600   -0.1532    2.8976 H   0  0  0  0  0  0  0  0  0  0  0  0
    0.5077    1.4304    4.2299 H   0  0  0  0  0  0  0  0  0  0  0  0
    3.9268    1.4681    3.4812 H   0  0  0  0  0  0  0  0  0  0  0  0
    5.3462    0.1699    0.5171 H   0  0  0  0  0  0  0  0  0  0  0  0
    3.3317   -0.4027   -0.3435 H   0  0  0  0  0  0  0  0  0  0  0  0
   -0.5374   -1.7368    0.7481 H   0  0  0  0  0  0  0  0  0  0  0  0
   -0.5336    0.5280   -2.2923 H   0  0  0  0  0  0  0  0  0  0  0  0
   -1.7712   -0.0236   -4.3646 H   0  0  0  0  0  0  0  0  0  0  0  0
   -3.8107   -2.9187   -4.4759 H   0  0  0  0  0  0  0  0  0  0  0  0
   -3.5279   -4.2262   -1.7015 H   0  0  0  0  0  0  0  0  0  0  0  0
   -2.1816   -2.9782   -0.3784 H   0  0  0  0  0  0  0  0  0  0  0  0
  1  2  1  0
  2  3  1  0
  3  4  1  0
  4  5  2  0
  5  6  1  0
  5  7  1  0
  7  8  2  0
  8  9  1  0
  8 10  1  0
 10 11  2  0
 11 12  1  0
 12 13  1  0
 13 14  1  0
 14 15  1  0
 15 16  2  0
 16 17  1  0
 17 18  1  0
 17 19  2  0
 19 20  1  0
 19 21  1  0
 13  2  1  0
 21 14  2  0
 11  4  1  0
  1 22  1  0
  2 23  1  6
  3 24  1  0
  3 25  1  0
  6 26  1  0
  7 27  1  0
  9 28  1  0
 10 29  1  0
 13 30  1  1
 15 31  1  0
 16 32  1  0
 18 33  1  0
 20 34  1  0
 21 35  1  0
M  END
>  <clase>  (24) 
Flavan-3-ol

>  <carga>  (24) 
0

>  <InChIKey>  (24) 
PFTAWBLQPZVEMU-DZGCQCFKSA-N

>  <parte_planta>  (24) 
hojas|tallo

$$$$
Epicatequina
     RDKit          3D

 35 37  0  0  0  0  0  0  0  0999 V2000
   -1.8606   -2.9052    0.5630 O   0  0  0  0  0  0  0  0  0  0  0  0
   -0.5547   -2.3431    0.7179 C   0  0  2  0  0  0  0  0  0  0  0  0
   -0.5594   -1.2551    1.7834 C   0  0  0  0  0  0  0  0  0  0  0  0
    0.7745   -0.5733    1.8493 C   0  0  0  0  0  0  0  0  0  0  0  0
    1.1840    0.1542    2.9760 C   0  0  0  0  0  0  0  0  0  0  0  0
    0.3992    0.3186    4.0830 O   0  0  0  0  0  0  0  0  0  0  0  0
    2.4378    0.7601    3.0275 C   0  0  0  0  0  0  0  0  0  0  0  0
    3.2914    0.6626    1.9387 C   0  0  0  0  0  0  0  0  0  0  0  0
    4.5088    1.2706    2.0235 O   0  0  0  0  0  0  0  0  0  0  0  0
    2.9037   -0.0268    0.7972 C   0  0  0  0  0  0  0  0  0  0  0  0
    1.6456   -0.6351    0.7503 C   0  0  0  0  0  0  0  0  0  0  0  0
    1.3579   -1.2581   -0.4360 O   0  0  0  0  0  0  0  0  0  0  0  0
    0.0441   -1.8151   -0.6015 C   0  0  2  0  0  0  0  0  0  0  0  0
   -0.8767   -0.8859   -1.3933 C   0  0  0  0  0  0  0  0  0  0  0  0
   -0.8164    0.5152   -1.2799 C   0  0  0  0  0  0  0  0  0  0  0  0
   -1.6945    1.3327   -1.9973 C   0  0  0  0  0  0  0  0  0  0  0  0
   -2.6339    0.7526   -2.8335 C   0  0  0  0  0  0  0  0  0  0  0  0
   -3.4922    1.5531   -3.5301 O   0  0  0  0  0  0  0  0  0  0  0  0
   -2.7067   -0.6291   -2.9676 C   0  0  0  0  0  0  0  0  0  0  0  0
   -3.6553   -1.1375   -3.8109 O   0  0  0  0  0  0  0  0  0  0  0  0
   -1.8383   -1.4509   -2.2565 C   0  0  0  0  0  0  0  0  0  0  0  0
   -2.4757   -2.1789    0.3519 H   0  0  0  0  0  0  0  0  0  0  0  0
    0.0932   -3.1562    1.0726 H   0  0  0  0  0  0  0  0  0  0  0  0
   -1.3436   -0.5145    1.5857 H   0  0  0  0  0  0  0  0  0  0  0  0
   -0.8064   -1.7245    2.7435 H   0  0  0  0  0  0  0  0  0  0  0  0
   -0.5051    0.0232    3.8992 H   0  0  0  0  0  0  0  0  0  0  0  0
    2.7435    1.3105    3.9126 H   0  0  0  0  0  0  0  0  0  0  0  0
    4.9944    1.1160    1.1965 H   0  0  0  0  0  0  0  0  0  0  0  0
    3.5588   -0.0960   -0.0657 H   0  0  0  0  0  0  0  0  0  0  0  0
    0.2008   -2.6904   -1.2468 H   0  0  0  0  0  0  0  0  0  0  0  0
   -0.0823    0.9954   -0.6373 H   0  0  0  0  0  0  0  0  0  0  0  0
   -1.6407    2.4136   -1.9056 H   0  0  0  0  0  0  0  0  0  0  0  0
   -4.0410    0.9324   -4.0495 H   0  0  0  0  0  0  0  0  0  0  0  0
   -3.5571   -2.1050   -3.8352 H   0  0  0  0  0  0  0  0  0  0  0  0
   -1.9002   -2.5318   -2.3585 H   0  0  0  0  0  0  0  0  0  0  0  0
  1  2  1  0
  2  3  1  0
  3  4  1  0
  4  5  2  0
  5  6  1  0
  5  7  1  0
  7  8  2  0
  8  9  1  0
  8 10  1  0
 10 11  2  0
 11 12  1  0
 12 13  1  0
 13 14  1  0
 14 15  1  0
 15 16  2  0
 16 17  1  0
 17 18  1  0
 17 19  2  0
 19 20  1  0
 19 21  1  0
 13  2  1  0
 21 14  2  0
 11  4  1  0
  1 22  1  0
  2 23  1  1
  3 24  1  0
  3 25  1  0
  6 26  1  0
  7 27  1  0
  9 28  1  0
 10 29  1  0
 13 30  1  6
 15 31  1  0
 16 32  1  0
 18 33  1  0
 20 34  1  0
 21 35  1  0
M  END
>  <clase>  (25) 
Flavan-3-ol

>  <carga>  (25) 
0

>  <InChIKey>  (25) 
PFTAWBLQPZVEMU-UKRRQHHQSA-N

>  <parte_planta>  (25) 
hojas|tallo

$$$$
Ácido Cafeico
     RDKit          3D

 21 21  0  0  0  0  0  0  0  0999 V2000
   -3.6642    0.6986   -1.9543 O   0  0  0  0  0  0  0  0  0  0  0  0
   -3.6046   -0.2328   -0.9907 C   0  0  0  0  0  0  0  0  0  0  0  0
   -4.5831   -0.8825   -0.6690 O   0  0  0  0  0  0  0  0  0  0  0  0
   -2.2752   -0.3830   -0.3839 C   0  0  0  0  0  0  0  0  0  0  0  0
   -1.2083    0.3483   -0.7418 C   0  0  0  0  0  0  0  0  0  0  0  0
    0.1253    0.1925   -0.1438 C   0  0  0  0  0  0  0  0  0  0  0  0
    0.3038   -0.0384    1.2311 C   0  0  0  0  0  0  0  0  0  0  0  0
    1.5863   -0.1551    1.7745 C   0  0  0  0  0  0  0  0  0  0  0  0
    2.6874   -0.0303    0.9429 C   0  0  0  0  0  0  0  0  0  0  0  0
    3.9400   -0.1437    1.4731 O   0  0  0  0  0  0  0  0  0  0  0  0
    2.5268    0.2132   -0.4178 C   0  0  0  0  0  0  0  0  0  0  0  0
    3.6575    0.3306   -1.1791 O   0  0  0  0  0  0  0  0  0  0  0  0
    1.2536    0.3319   -0.9674 C   0  0  0  0  0  0  0  0  0  0  0  0
   -4.6000    0.6727   -2.2432 H   0  0  0  0  0  0  0  0  0  0  0  0
   -2.2215   -1.1508    0.3798 H   0  0  0  0  0  0  0  0  0  0  0  0
   -1.2890    1.0952   -1.5288 H   0  0  0  0  0  0  0  0  0  0  0  0
   -0.5509   -0.1184    1.8988 H   0  0  0  0  0  0  0  0  0  0  0  0
    1.7226   -0.3356    2.8364 H   0  0  0  0  0  0  0  0  0  0  0  0
    4.5407   -0.0193    0.7115 H   0  0  0  0  0  0  0  0  0  0  0  0
    3.3889    0.4921   -2.0999 H   0  0  0  0  0  0  0  0  0  0  0  0
    1.1284    0.5229   -2.0290 H   0  0  0  0  0  0  0  0  0  0  0  0
  1  2  1  0
  2  3  2  0
  2  4  1  0
  4  5  2  0
  5  6  1  0
  6  7  1  0
  7  8  2  0
  8  9  1  0
  9 10  1  0
  9 11  2  0
 11 12  1  0
 11 13  1  0
 13  6  2  0
  1 14  1  0
  4 15  1  0
  5 16  1  0
  7 17  1  0
  8 18  1  0
 10 19  1  0
 12 20  1  0
 13 21  1  0
M  END
>  <clase>  (26) 
Ác. Hidroxicinámico

>  <carga>  (26) 
0

>  <InChIKey>  (26) 
QAIPRVGONGVQAS-DUXPYHPUSA-N

>  <parte_planta>  (26) 
hojas|tallo

$$$$
Ácido Ferúlico
     RDKit          3D

 24 24  0  0  0  0  0  0  0  0999 V2000
   -3.8156   -2.6128   -0.5604 O   0  0  0  0  0  0  0  0  0  0  0  0
   -3.7367   -1.3319   -0.9495 C   0  0  0  0  0  0  0  0  0  0  0  0
   -4.7113   -0.7250   -1.3559 O   0  0  0  0  0  0  0  0  0  0  0  0
   -2.3917   -0.7521   -0.8353 C   0  0  0  0  0  0  0  0  0  0  0  0
   -1.3279   -1.4267   -0.3727 C   0  0  0  0  0  0  0  0  0  0  0  0
    0.0206   -0.8508   -0.2690 C   0  0  0  0  0  0  0  0  0  0  0  0
    1.1213   -1.6644   -0.5744 C   0  0  0  0  0  0  0  0  0  0  0  0
    2.4201   -1.1683   -0.4664 C   0  0  0  0  0  0  0  0  0  0  0  0
    2.6133    0.1384   -0.0413 C   0  0  0  0  0  0  0  0  0  0  0  0
    3.8968    0.6024    0.0574 O   0  0  0  0  0  0  0  0  0  0  0  0
    1.5366    0.9693    0.2862 C   0  0  0  0  0  0  0  0  0  0  0  0
    1.8854    2.2299    0.6997 O   0  0  0  0  0  0  0  0  0  0  0  0
    0.8190    3.1091    1.0386 C   0  0  0  0  0  0  0  0  0  0  0  0
    0.2385    0.4658    0.1756 C   0  0  0  0  0  0  0  0  0  0  0  0
   -4.7580   -2.8417   -0.6981 H   0  0  0  0  0  0  0  0  0  0  0  0
   -2.3237    0.2762   -1.1716 H   0  0  0  0  0  0  0  0  0  0  0  0
   -1.4202   -2.4677   -0.0692 H   0  0  0  0  0  0  0  0  0  0  0  0
    0.9767   -2.6899   -0.9078 H   0  0  0  0  0  0  0  0  0  0  0  0
    3.2731   -1.7943   -0.7099 H   0  0  0  0  0  0  0  0  0  0  0  0
    3.8080    1.5233    0.3712 H   0  0  0  0  0  0  0  0  0  0  0  0
    1.2577    4.0661    1.3371 H   0  0  0  0  0  0  0  0  0  0  0  0
    0.1708    3.2945    0.1758 H   0  0  0  0  0  0  0  0  0  0  0  0
    0.2470    2.7250    1.8897 H   0  0  0  0  0  0  0  0  0  0  0  0
   -0.6170    1.0764    0.4428 H   0  0  0  0  0  0  0  0  0  0  0  0
  1  2  1  0
  2  3  2  0
  2  4  1  0
  4  5  2  0
  5  6  1  0
  6  7  1  0
  7  8  2  0
  8  9  1  0
  9 10  1  0
  9 11  2  0
 11 12  1  0
 12 13  1  0
 11 14  1  0
 14  6  2  0
  1 15  1  0
  4 16  1  0
  5 17  1  0
  7 18  1  0
  8 19  1  0
 10 20  1  0
 13 21  1  0
 13 22  1  0
 13 23  1  0
 14 24  1  0
M  END
>  <clase>  (27) 
Ác. Hidroxicinámico

>  <carga>  (27) 
0

>  <InChIKey>  (27) 
KSEBMYQBYZTDHS-HWKANZROSA-N

>  <parte_planta>  (27) 
hojas

$$$$
Ácido Clorogénico (5-cafeoilquínico)
     RDKit          3D

 43 44  0  0  0  0  0  0  0  0999 V2000
    1.5699    3.0407    3.0838 O   0  0  0  0  0  0  0  0  0  0  0  0
    1.7221    1.6224    2.9335 C   0  0  2  0  0  0  0  0  0  0  0  0
    3.1954    1.3143    2.6540 C   0  0  0  0  0  0  0  0  0  0  0  0
    3.4126   -0.1615    2.3116 C   0  0  2  0  0  0  0  0  0  0  0  0
    3.1046   -0.9199    3.4904 O   0  0  0  0  0  0  0  0  0  0  0  0
    4.8731   -0.3939    1.8953 C   0  0  0  0  0  0  0  0  0  0  0  0
    5.5871    0.3360    1.2307 O   0  0  0  0  0  0  0  0  0  0  0  0
    5.3349   -1.5885    2.3397 O   0  0  0  0  0  0  0  0  0  0  0  0
    2.4949   -0.6353    1.1823 C   0  0  0  0  0  0  0  0  0  0  0  0
    1.0229   -0.3295    1.4822 C   0  0  2  0  0  0  0  0  0  0  0  0
    0.2604   -0.7439    0.3287 O   0  0  0  0  0  0  0  0  0  0  0  0
   -1.0720   -0.8822    0.5290 C   0  0  0  0  0  0  0  0  0  0  0  0
   -1.6663   -0.7482    1.5856 O   0  0  0  0  0  0  0  0  0  0  0  0
   -1.6923   -1.2340   -0.7635 C   0  0  0  0  0  0  0  0  0  0  0  0
   -3.0152   -1.4447   -0.8353 C   0  0  0  0  0  0  0  0  0  0  0  0
   -3.7193   -1.8077   -2.0723 C   0  0  0  0  0  0  0  0  0  0  0  0
   -3.3849   -1.2465   -3.3137 C   0  0  0  0  0  0  0  0  0  0  0  0
   -4.0931   -1.5943   -4.4686 C   0  0  0  0  0  0  0  0  0  0  0  0
   -5.1473   -2.4993   -4.3837 C   0  0  0  0  0  0  0  0  0  0  0  0
   -5.8494   -2.8502   -5.5020 O   0  0  0  0  0  0  0  0  0  0  0  0
   -5.4986   -3.0511   -3.1527 C   0  0  0  0  0  0  0  0  0  0  0  0
   -6.5411   -3.9334   -3.0876 O   0  0  0  0  0  0  0  0  0  0  0  0
   -4.7945   -2.7048   -1.9986 C   0  0  0  0  0  0  0  0  0  0  0  0
    0.8225    1.1678    1.7739 C   0  0  2  0  0  0  0  0  0  0  0  0
    1.1566    1.9459    0.6101 O   0  0  0  0  0  0  0  0  0  0  0  0
    2.0714    3.3001    3.8777 H   0  0  0  0  0  0  0  0  0  0  0  0
    1.3953    1.1462    3.8651 H   0  0  0  0  0  0  0  0  0  0  0  0
    3.5619    1.9616    1.8462 H   0  0  0  0  0  0  0  0  0  0  0  0
    3.7845    1.5910    3.5387 H   0  0  0  0  0  0  0  0  0  0  0  0
    3.6333   -1.7427    3.4238 H   0  0  0  0  0  0  0  0  0  0  0  0
    6.2593   -1.6175    2.0085 H   0  0  0  0  0  0  0  0  0  0  0  0
    2.6005   -1.7186    1.0340 H   0  0  0  0  0  0  0  0  0  0  0  0
    2.7872   -0.1804    0.2263 H   0  0  0  0  0  0  0  0  0  0  0  0
    0.7109   -0.9264    2.3497 H   0  0  0  0  0  0  0  0  0  0  0  0
   -1.0330   -1.3167   -1.6184 H   0  0  0  0  0  0  0  0  0  0  0  0
   -3.6307   -1.3706    0.0602 H   0  0  0  0  0  0  0  0  0  0  0  0
   -2.5780   -0.5218   -3.3962 H   0  0  0  0  0  0  0  0  0  0  0  0
   -3.8123   -1.1463   -5.4166 H   0  0  0  0  0  0  0  0  0  0  0  0
   -5.4896   -2.3736   -6.2653 H   0  0  0  0  0  0  0  0  0  0  0  0
   -6.6624   -4.2162   -2.1686 H   0  0  0  0  0  0  0  0  0  0  0  0
   -5.0719   -3.1358   -1.0408 H   0  0  0  0  0  0  0  0  0  0  0  0
   -0.2252    1.3962    1.9946 H   0  0  0  0  0  0  0  0  0  0  0  0
    1.1724    2.8709    0.9318 H   0  0  0  0  0  0  0  0  0  0  0  0
  1  2  1  0
  2  3  1  0
  3  4  1  0
  4  5  1  1
  4  6  1  0
  6  7  2  0
  6  8  1  0
  4  9  1  0
  9 10  1  0
 10 11  1  0
 11 12  1  0
 12 13  2  0
 12 14  1  0
 14 15  2  0
 15 16  1  0
 16 17  1  0
 17 18  2  0
 18 19  1  0
 19 20  1  0
 19 21  2  0
 21 22  1  0
 21 23  1  0
 10 24  1  0
 24 25  1  0
 24  2  1  0
 23 16  2  0
  1 26  1  0
  2 27  1  1
  3 28  1  0
  3 29  1  0
  5 30  1  0
  8 31  1  0
  9 32  1  0
  9 33  1  0
 10 34  1  1
 14 35  1  0
 15 36  1  0
 17 37  1  0
 18 38  1  0
 20 39  1  0
 22 40  1  0
 23 41  1  0
 24 42  1  1
 25 43  1  0
M  END
>  <clase>  (28) 
Ác. Hidroxicinámico

>  <carga>  (28) 
0

>  <InChIKey>  (28) 
CWVRJTMFETXNAD-QEPAVKMUSA-N

>  <parte_planta>  (28) 
fruto|hojas|tallo

$$$$
3-Cafeoilquínico
     RDKit          3D

 43 44  0  0  0  0  0  0  0  0999 V2000
   -2.3289    2.7429    2.5426 O   0  0  0  0  0  0  0  0  0  0  0  0
   -1.9221    1.5517    1.8571 C   0  0  2  0  0  0  0  0  0  0  0  0
   -1.5053    0.4867    2.8813 C   0  0  0  0  0  0  0  0  0  0  0  0
   -0.0297    0.6036    3.3323 C   0  0  2  0  0  0  0  0  0  0  0  0
    0.7326   -0.3666    2.5975 O   0  0  0  0  0  0  0  0  0  0  0  0
    0.0938    0.3026    4.8417 C   0  0  0  0  0  0  0  0  0  0  0  0
   -0.7932    0.3720    5.6791 O   0  0  0  0  0  0  0  0  0  0  0  0
    1.3469   -0.0289    5.2224 O   0  0  0  0  0  0  0  0  0  0  0  0
    0.5534    2.0054    3.1038 C   0  0  0  0  0  0  0  0  0  0  0  0
    0.3854    2.5413    1.6732 C   0  0  2  0  0  0  0  0  0  0  0  0
    0.1952    3.9582    1.7567 O   0  0  0  0  0  0  0  0  0  0  0  0
   -0.7770    1.8948    0.8899 C   0  0  1  0  0  0  0  0  0  0  0  0
   -0.2723    0.7051    0.2416 O   0  0  0  0  0  0  0  0  0  0  0  0
   -1.0386    0.2273   -0.7727 C   0  0  0  0  0  0  0  0  0  0  0  0
   -2.1041    0.6829   -1.1480 O   0  0  0  0  0  0  0  0  0  0  0  0
   -0.3678   -0.9633   -1.3294 C   0  0  0  0  0  0  0  0  0  0  0  0
   -0.9402   -1.6403   -2.3363 C   0  0  0  0  0  0  0  0  0  0  0  0
   -0.3472   -2.8282   -2.9655 C   0  0  0  0  0  0  0  0  0  0  0  0
    0.3468   -3.8016   -2.2259 C   0  0  0  0  0  0  0  0  0  0  0  0
    0.8829   -4.9300   -2.8551 C   0  0  0  0  0  0  0  0  0  0  0  0
    0.7153   -5.0888   -4.2217 C   0  0  0  0  0  0  0  0  0  0  0  0
    1.2955   -6.1580   -4.8389 O   0  0  0  0  0  0  0  0  0  0  0  0
   -0.0129   -4.1580   -4.9543 C   0  0  0  0  0  0  0  0  0  0  0  0
   -0.2539   -4.3585   -6.2830 O   0  0  0  0  0  0  0  0  0  0  0  0
   -0.5347   -3.0254   -4.3409 C   0  0  0  0  0  0  0  0  0  0  0  0
   -3.1637    2.5392    3.0060 H   0  0  0  0  0  0  0  0  0  0  0  0
   -2.7937    1.1850    1.3043 H   0  0  0  0  0  0  0  0  0  0  0  0
   -1.6606   -0.5041    2.4339 H   0  0  0  0  0  0  0  0  0  0  0  0
   -2.1905    0.5529    3.7339 H   0  0  0  0  0  0  0  0  0  0  0  0
    0.8178   -0.0688    1.6754 H   0  0  0  0  0  0  0  0  0  0  0  0
    1.2714   -0.2062    6.1819 H   0  0  0  0  0  0  0  0  0  0  0  0
    1.6277    2.0054    3.3343 H   0  0  0  0  0  0  0  0  0  0  0  0
    0.1088    2.7087    3.8220 H   0  0  0  0  0  0  0  0  0  0  0  0
    1.3210    2.3828    1.1241 H   0  0  0  0  0  0  0  0  0  0  0  0
   -0.7014    4.0976    2.1279 H   0  0  0  0  0  0  0  0  0  0  0  0
   -1.1219    2.6136    0.1344 H   0  0  0  0  0  0  0  0  0  0  0  0
    0.5873   -1.2433   -0.9033 H   0  0  0  0  0  0  0  0  0  0  0  0
   -1.8888   -1.3052   -2.7546 H   0  0  0  0  0  0  0  0  0  0  0  0
    0.4754   -3.6986   -1.1510 H   0  0  0  0  0  0  0  0  0  0  0  0
    1.4344   -5.6690   -2.2814 H   0  0  0  0  0  0  0  0  0  0  0  0
    1.6041   -5.8344   -5.7054 H   0  0  0  0  0  0  0  0  0  0  0  0
   -0.3984   -5.3170   -6.3891 H   0  0  0  0  0  0  0  0  0  0  0  0
   -1.0920   -2.3079   -4.9376 H   0  0  0  0  0  0  0  0  0  0  0  0
  1  2  1  0
  2  3  1  0
  3  4  1  0
  4  5  1  6
  4  6  1  0
  6  7  2  0
  6  8  1  0
  4  9  1  0
  9 10  1  0
 10 11  1  0
 10 12  1  0
 12 13  1  0
 13 14  1  0
 14 15  2  0
 14 16  1  0
 16 17  2  0
 17 18  1  0
 18 19  1  0
 19 20  2  0
 20 21  1  0
 21 22  1  0
 21 23  2  0
 23 24  1  0
 23 25  1  0
 12  2  1  0
 25 18  2  0
  1 26  1  0
  2 27  1  6
  3 28  1  0
  3 29  1  0
  5 30  1  0
  8 31  1  0
  9 32  1  0
  9 33  1  0
 10 34  1  6
 11 35  1  0
 12 36  1  6
 16 37  1  0
 17 38  1  0
 19 39  1  0
 20 40  1  0
 22 41  1  0
 24 42  1  0
 25 43  1  0
M  END
>  <clase>  (29) 
Ác. Hidroxicinámico

>  <carga>  (29) 
0

>  <InChIKey>  (29) 
GYFFKZTYYAFCTR-DHLOTTMOSA-N

>  <parte_planta>  (29) 
fruto

$$$$
4-Cafeoilquínico
     RDKit          3D

 43 44  0  0  0  0  0  0  0  0999 V2000
    0.0083    2.7763   -1.5195 O   0  0  0  0  0  0  0  0  0  0  0  0
    0.3922    2.3202   -0.2188 C   0  0  1  0  0  0  0  0  0  0  0  0
    1.1147    3.4645    0.4852 C   0  0  0  0  0  0  0  0  0  0  0  0
    1.5593    3.0950    1.9093 C   0  0  2  0  0  0  0  0  0  0  0  0
    1.5673    4.3225    2.6588 O   0  0  0  0  0  0  0  0  0  0  0  0
    2.9802    2.5143    1.9134 C   0  0  0  0  0  0  0  0  0  0  0  0
    3.9033    2.9298    2.5990 O   0  0  0  0  0  0  0  0  0  0  0  0
    3.1475    1.4459    1.1136 O   0  0  0  0  0  0  0  0  0  0  0  0
    0.6041    2.1230    2.6179 C   0  0  0  0  0  0  0  0  0  0  0  0
   -0.8066    2.2379    2.0464 C   0  0  2  0  0  0  0  0  0  0  0  0
   -1.6981    1.4284    2.8180 O   0  0  0  0  0  0  0  0  0  0  0  0
   -0.8508    1.8279    0.5605 C   0  0  2  0  0  0  0  0  0  0  0  0
   -0.9115    0.3710    0.5189 O   0  0  0  0  0  0  0  0  0  0  0  0
   -1.2089   -0.1702   -0.6897 C   0  0  0  0  0  0  0  0  0  0  0  0
   -1.3700    0.4449   -1.7305 O   0  0  0  0  0  0  0  0  0  0  0  0
   -1.2858   -1.6345   -0.5330 C   0  0  0  0  0  0  0  0  0  0  0  0
   -1.5250   -2.4081   -1.6023 C   0  0  0  0  0  0  0  0  0  0  0  0
   -1.6012   -3.8733   -1.5436 C   0  0  0  0  0  0  0  0  0  0  0  0
   -2.2616   -4.5462   -0.5005 C   0  0  0  0  0  0  0  0  0  0  0  0
   -2.3424   -5.9439   -0.4848 C   0  0  0  0  0  0  0  0  0  0  0  0
   -1.7677   -6.6663   -1.5216 C   0  0  0  0  0  0  0  0  0  0  0  0
   -1.8128   -8.0317   -1.5654 O   0  0  0  0  0  0  0  0  0  0  0  0
   -1.1249   -6.0057   -2.5643 C   0  0  0  0  0  0  0  0  0  0  0  0
   -0.5667   -6.7232   -3.5838 O   0  0  0  0  0  0  0  0  0  0  0  0
   -1.0422   -4.6195   -2.5886 C   0  0  0  0  0  0  0  0  0  0  0  0
   -0.4955    2.0484   -1.9463 H   0  0  0  0  0  0  0  0  0  0  0  0
    1.0901    1.4919   -0.3820 H   0  0  0  0  0  0  0  0  0  0  0  0
    0.4575    4.3458    0.5034 H   0  0  0  0  0  0  0  0  0  0  0  0
    1.9746    3.7850   -0.1185 H   0  0  0  0  0  0  0  0  0  0  0  0
    2.3077    4.2680    3.2965 H   0  0  0  0  0  0  0  0  0  0  0  0
    4.0946    1.2090    1.2192 H   0  0  0  0  0  0  0  0  0  0  0  0
    0.5766    2.3234    3.6971 H   0  0  0  0  0  0  0  0  0  0  0  0
    0.9404    1.0821    2.5238 H   0  0  0  0  0  0  0  0  0  0  0  0
   -1.1498    3.2741    2.1499 H   0  0  0  0  0  0  0  0  0  0  0  0
   -1.5980    0.5139    2.4960 H   0  0  0  0  0  0  0  0  0  0  0  0
   -1.7861    2.2043    0.1259 H   0  0  0  0  0  0  0  0  0  0  0  0
   -1.1268   -2.0389    0.4586 H   0  0  0  0  0  0  0  0  0  0  0  0
   -1.6486   -1.9658   -2.5903 H   0  0  0  0  0  0  0  0  0  0  0  0
   -2.7342   -3.9883    0.3048 H   0  0  0  0  0  0  0  0  0  0  0  0
   -2.8579   -6.4383    0.3322 H   0  0  0  0  0  0  0  0  0  0  0  0
   -2.3013   -8.3455   -0.7849 H   0  0  0  0  0  0  0  0  0  0  0  0
   -0.7513   -7.6567   -3.3578 H   0  0  0  0  0  0  0  0  0  0  0  0
   -0.5363   -4.1340   -3.4189 H   0  0  0  0  0  0  0  0  0  0  0  0
  1  2  1  0
  2  3  1  0
  3  4  1  0
  4  5  1  1
  4  6  1  0
  6  7  2  0
  6  8  1  0
  4  9  1  0
  9 10  1  0
 10 11  1  0
 10 12  1  0
 12 13  1  0
 13 14  1  0
 14 15  2  0
 14 16  1  0
 16 17  2  0
 17 18  1  0
 18 19  1  0
 19 20  2  0
 20 21  1  0
 21 22  1  0
 21 23  2  0
 23 24  1  0
 23 25  1  0
 12  2  1  0
 25 18  2  0
  1 26  1  0
  2 27  1  6
  3 28  1  0
  3 29  1  0
  5 30  1  0
  8 31  1  0
  9 32  1  0
  9 33  1  0
 10 34  1  6
 11 35  1  0
 12 36  1  6
 16 37  1  0
 17 38  1  0
 19 39  1  0
 20 40  1  0
 22 41  1  0
 24 42  1  0
 25 43  1  0
M  END
>  <clase>  (30) 
Ác. Hidroxicinámico

>  <carga>  (30) 
0

>  <InChIKey>  (30) 
GYFFKZTYYAFCTR-ZZVAFGPTSA-N

>  <parte_planta>  (30) 
fruto

$$$$
3,5-Dicafeoilquínico
     RDKit          3D

 61 63  0  0  0  0  0  0  0  0999 V2000
   -1.8625    3.2947   -3.7032 O   0  0  0  0  0  0  0  0  0  0  0  0
   -1.2256    2.5764   -2.6447 C   0  0  2  0  0  0  0  0  0  0  0  0
   -1.4787    1.0582   -2.7920 C   0  0  1  0  0  0  0  0  0  0  0  0
   -0.3315    0.3824   -2.2156 O   0  0  0  0  0  0  0  0  0  0  0  0
   -0.1536   -0.9172   -2.5524 C   0  0  0  0  0  0  0  0  0  0  0  0
   -0.7693   -1.5502   -3.3901 O   0  0  0  0  0  0  0  0  0  0  0  0
    0.8726   -1.4616   -1.6398 C   0  0  0  0  0  0  0  0  0  0  0  0
    1.1066   -2.7815   -1.5966 C   0  0  0  0  0  0  0  0  0  0  0  0
    1.9994   -3.4243   -0.6206 C   0  0  0  0  0  0  0  0  0  0  0  0
    3.1114   -2.7740   -0.0568 C   0  0  0  0  0  0  0  0  0  0  0  0
    3.9040   -3.4068    0.9086 C   0  0  0  0  0  0  0  0  0  0  0  0
    3.5902   -4.7003    1.2999 C   0  0  0  0  0  0  0  0  0  0  0  0
    4.3030   -5.3589    2.2620 O   0  0  0  0  0  0  0  0  0  0  0  0
    2.5134   -5.3641    0.7213 C   0  0  0  0  0  0  0  0  0  0  0  0
    2.2056   -6.6351    1.1142 O   0  0  0  0  0  0  0  0  0  0  0  0
    1.7217   -4.7432   -0.2362 C   0  0  0  0  0  0  0  0  0  0  0  0
   -2.7311    0.5726   -2.0388 C   0  0  0  0  0  0  0  0  0  0  0  0
   -3.8135    1.6341   -1.8647 C   0  0  2  0  0  0  0  0  0  0  0  0
   -4.8055    1.0814   -0.9709 O   0  0  0  0  0  0  0  0  0  0  0  0
   -4.5427    1.8983   -3.1963 C   0  0  0  0  0  0  0  0  0  0  0  0
   -4.2220    1.5467   -4.3176 O   0  0  0  0  0  0  0  0  0  0  0  0
   -5.7086    2.5648   -3.0018 O   0  0  0  0  0  0  0  0  0  0  0  0
   -3.2876    2.9312   -1.2174 C   0  0  0  0  0  0  0  0  0  0  0  0
   -1.7622    3.1051   -1.3049 C   0  0  1  0  0  0  0  0  0  0  0  0
   -1.1560    2.4049   -0.1991 O   0  0  0  0  0  0  0  0  0  0  0  0
    0.1224    2.7566    0.0786 C   0  0  0  0  0  0  0  0  0  0  0  0
    0.7353    3.6811   -0.4342 O   0  0  0  0  0  0  0  0  0  0  0  0
    0.7569    1.8439    1.0504 C   0  0  0  0  0  0  0  0  0  0  0  0
    0.1707    0.7540    1.5712 C   0  0  0  0  0  0  0  0  0  0  0  0
    0.8553   -0.1916    2.4688 C   0  0  0  0  0  0  0  0  0  0  0  0
    1.8396    0.2190    3.3859 C   0  0  0  0  0  0  0  0  0  0  0  0
    2.4746   -0.7071    4.2190 C   0  0  0  0  0  0  0  0  0  0  0  0
    2.1122   -2.0411    4.1447 C   0  0  0  0  0  0  0  0  0  0  0  0
    2.7421   -2.9550    4.9398 O   0  0  0  0  0  0  0  0  0  0  0  0
    1.1222   -2.4599    3.2622 C   0  0  0  0  0  0  0  0  0  0  0  0
    0.8150   -3.7919    3.2528 O   0  0  0  0  0  0  0  0  0  0  0  0
    0.4876   -1.5468    2.4257 C   0  0  0  0  0  0  0  0  0  0  0  0
   -1.3440    4.1058   -3.8571 H   0  0  0  0  0  0  0  0  0  0  0  0
   -0.1476    2.7586   -2.7262 H   0  0  0  0  0  0  0  0  0  0  0  0
   -1.5502    0.8101   -3.8585 H   0  0  0  0  0  0  0  0  0  0  0  0
    1.3517   -0.7566   -0.9732 H   0  0  0  0  0  0  0  0  0  0  0  0
    0.5663   -3.4498   -2.2667 H   0  0  0  0  0  0  0  0  0  0  0  0
    3.3750   -1.7618   -0.3538 H   0  0  0  0  0  0  0  0  0  0  0  0
    4.7437   -2.8729    1.3421 H   0  0  0  0  0  0  0  0  0  0  0  0
    4.9288   -4.7258    2.6570 H   0  0  0  0  0  0  0  0  0  0  0  0
    2.8951   -6.8617    1.7708 H   0  0  0  0  0  0  0  0  0  0  0  0
    0.8829   -5.2889   -0.6605 H   0  0  0  0  0  0  0  0  0  0  0  0
   -2.4502    0.1840   -1.0492 H   0  0  0  0  0  0  0  0  0  0  0  0
   -3.1417   -0.3060   -2.5553 H   0  0  0  0  0  0  0  0  0  0  0  0
   -5.5859    1.6668   -1.0410 H   0  0  0  0  0  0  0  0  0  0  0  0
   -6.0748    2.6349   -3.9104 H   0  0  0  0  0  0  0  0  0  0  0  0
   -3.5883    2.9741   -0.1623 H   0  0  0  0  0  0  0  0  0  0  0  0
   -3.7586    3.7959   -1.7025 H   0  0  0  0  0  0  0  0  0  0  0  0
   -1.5595    4.1801   -1.2071 H   0  0  0  0  0  0  0  0  0  0  0  0
    1.7854    2.1065    1.2729 H   0  0  0  0  0  0  0  0  0  0  0  0
   -0.8520    0.4939    1.3044 H   0  0  0  0  0  0  0  0  0  0  0  0
    2.1212    1.2657    3.4732 H   0  0  0  0  0  0  0  0  0  0  0  0
    3.2381   -0.3871    4.9214 H   0  0  0  0  0  0  0  0  0  0  0  0
    2.2889   -3.7996    4.7369 H   0  0  0  0  0  0  0  0  0  0  0  0
    0.3135   -3.9882    2.4411 H   0  0  0  0  0  0  0  0  0  0  0  0
   -0.2828   -1.8836    1.7379 H   0  0  0  0  0  0  0  0  0  0  0  0
  1  2  1  0
  2  3  1  0
  3  4  1  0
  4  5  1  0
  5  6  2  0
  5  7  1  0
  7  8  2  0
  8  9  1  0
  9 10  1  0
 10 11  2  0
 11 12  1  0
 12 13  1  0
 12 14  2  0
 14 15  1  0
 14 16  1  0
  3 17  1  0
 17 18  1  0
 18 19  1  1
 18 20  1  0
 20 21  2  0
 20 22  1  0
 18 23  1  0
 23 24  1  0
 24 25  1  0
 25 26  1  0
 26 27  2  0
 26 28  1  0
 28 29  2  0
 29 30  1  0
 30 31  1  0
 31 32  2  0
 32 33  1  0
 33 34  1  0
 33 35  2  0
 35 36  1  0
 35 37  1  0
 24  2  1  0
 37 30  2  0
 16  9  2  0
  1 38  1  0
  2 39  1  1
  3 40  1  6
  7 41  1  0
  8 42  1  0
 10 43  1  0
 11 44  1  0
 13 45  1  0
 15 46  1  0
 16 47  1  0
 17 48  1  0
 17 49  1  0
 19 50  1  0
 22 51  1  0
 23 52  1  0
 23 53  1  0
 24 54  1  1
 28 55  1  0
 29 56  1  0
 31 57  1  0
 32 58  1  0
 34 59  1  0
 36 60  1  0
 37 61  1  0
M  END
>  <clase>  (31) 
Ác. Hidroxicinámico

>  <carga>  (31) 
0

>  <InChIKey>  (31) 
KRZBCHWVBQOTNZ-CPYUJKAUSA-N

>  <parte_planta>  (31) 
fruto

$$$$
Cafeoilglucárico (isómeros A–D)
     RDKit          3D

 42 42  0  0  0  0  0  0  0  0999 V2000
   -0.1048    2.3976    3.5888 O   0  0  0  0  0  0  0  0  0  0  0  0
    1.0740    3.0447    3.5655 C   0  0  0  0  0  0  0  0  0  0  0  0
    1.1324    4.2606    3.6818 O   0  0  0  0  0  0  0  0  0  0  0  0
    2.2786    2.1269    3.4341 C   0  0  2  0  0  0  0  0  0  0  0  0
    3.4225    2.7542    4.0614 O   0  0  0  0  0  0  0  0  0  0  0  0
    2.6685    1.8758    1.9698 C   0  0  1  0  0  0  0  0  0  0  0  0
    3.9166    1.1612    1.9321 O   0  0  0  0  0  0  0  0  0  0  0  0
    1.6428    1.1345    1.0939 C   0  0  2  0  0  0  0  0  0  0  0  0
    0.5599    2.0349    0.7908 O   0  0  0  0  0  0  0  0  0  0  0  0
    1.0747   -0.1777    1.6624 C   0  0  1  0  0  0  0  0  0  0  0  0
    0.1657   -0.6912    0.6592 O   0  0  0  0  0  0  0  0  0  0  0  0
   -0.5600   -1.7651    1.0486 C   0  0  0  0  0  0  0  0  0  0  0  0
   -0.5422   -2.2752    2.1575 O   0  0  0  0  0  0  0  0  0  0  0  0
   -1.4275   -2.2710   -0.0339 C   0  0  0  0  0  0  0  0  0  0  0  0
   -1.4397   -1.7862   -1.2855 C   0  0  0  0  0  0  0  0  0  0  0  0
   -2.2991   -2.3145   -2.3550 C   0  0  0  0  0  0  0  0  0  0  0  0
   -1.7838   -2.3759   -3.6611 C   0  0  0  0  0  0  0  0  0  0  0  0
   -2.5691   -2.8433   -4.7181 C   0  0  0  0  0  0  0  0  0  0  0  0
   -3.8731   -3.2381   -4.4677 C   0  0  0  0  0  0  0  0  0  0  0  0
   -4.6414   -3.6934   -5.4997 O   0  0  0  0  0  0  0  0  0  0  0  0
   -4.4027   -3.1692   -3.1825 C   0  0  0  0  0  0  0  0  0  0  0  0
   -5.7006   -3.5664   -3.0106 O   0  0  0  0  0  0  0  0  0  0  0  0
   -3.6278   -2.7053   -2.1231 C   0  0  0  0  0  0  0  0  0  0  0  0
    2.1922   -1.1617    1.9937 C   0  0  0  0  0  0  0  0  0  0  0  0
    2.6986   -1.3251    3.0931 O   0  0  0  0  0  0  0  0  0  0  0  0
    2.6237   -1.8687    0.9279 O   0  0  0  0  0  0  0  0  0  0  0  0
   -0.7723    3.1127    3.6600 H   0  0  0  0  0  0  0  0  0  0  0  0
    2.1096    1.2016    3.9908 H   0  0  0  0  0  0  0  0  0  0  0  0
    3.2906    3.7207    3.9711 H   0  0  0  0  0  0  0  0  0  0  0  0
    2.8735    2.8490    1.5040 H   0  0  0  0  0  0  0  0  0  0  0  0
    4.4391    1.5030    2.6890 H   0  0  0  0  0  0  0  0  0  0  0  0
    2.1204    0.9107    0.1304 H   0  0  0  0  0  0  0  0  0  0  0  0
   -0.0551    1.5376    0.2181 H   0  0  0  0  0  0  0  0  0  0  0  0
    0.4883    0.0176    2.5669 H   0  0  0  0  0  0  0  0  0  0  0  0
   -2.0533   -3.1045    0.2666 H   0  0  0  0  0  0  0  0  0  0  0  0
   -0.7732   -0.9788   -1.5799 H   0  0  0  0  0  0  0  0  0  0  0  0
   -0.7605   -2.0686   -3.8676 H   0  0  0  0  0  0  0  0  0  0  0  0
   -2.1666   -2.8974   -5.7251 H   0  0  0  0  0  0  0  0  0  0  0  0
   -5.5035   -3.9060   -5.0897 H   0  0  0  0  0  0  0  0  0  0  0  0
   -5.9303   -3.4670   -2.0707 H   0  0  0  0  0  0  0  0  0  0  0  0
   -4.0532   -2.6353   -1.1272 H   0  0  0  0  0  0  0  0  0  0  0  0
    3.3498   -2.4175    1.2943 H   0  0  0  0  0  0  0  0  0  0  0  0
  1  2  1  0
  2  3  2  0
  2  4  1  0
  4  5  1  0
  4  6  1  0
  6  7  1  0
  6  8  1  0
  8  9  1  0
  8 10  1  0
 10 11  1  0
 11 12  1  0
 12 13  2  0
 12 14  1  0
 14 15  2  0
 15 16  1  0
 16 17  1  0
 17 18  2  0
 18 19  1  0
 19 20  1  0
 19 21  2  0
 21 22  1  0
 21 23  1  0
 10 24  1  0
 24 25  2  0
 24 26  1  0
 23 16  2  0
  1 27  1  0
  4 28  1  1
  5 29  1  0
  6 30  1  6
  7 31  1  0
  8 32  1  6
  9 33  1  0
 10 34  1  1
 14 35  1  0
 15 36  1  0
 17 37  1  0
 18 38  1  0
 20 39  1  0
 22 40  1  0
 23 41  1  0
 26 42  1  0
M  END
>  <clase>  (32) 
Ác. Hidroxicinámico

>  <carga>  (32) 
0

>  <InChIKey>  (32) 
OMIXKOJEIRRAJW-HLWOJZJGSA-N

>  <parte_planta>  (32) 
fruto

$$$$
Dicafeoilglucárico
     RDKit          3D

 60 61  0  0  0  0  0  0  0  0999 V2000
   -1.0242    3.8731   -0.6413 O   0  0  0  0  0  0  0  0  0  0  0  0
   -1.1984    3.2340    0.5383 C   0  0  0  0  0  0  0  0  0  0  0  0
   -2.3124    3.0003    0.9749 O   0  0  0  0  0  0  0  0  0  0  0  0
    0.1268    2.8546    1.1875 C   0  0  2  0  0  0  0  0  0  0  0  0
    1.2248    3.6631    0.7470 O   0  0  0  0  0  0  0  0  0  0  0  0
    0.4409    1.3634    0.9676 C   0  0  1  0  0  0  0  0  0  0  0  0
    0.9144    1.1616   -0.3864 O   0  0  0  0  0  0  0  0  0  0  0  0
   -0.0009    0.7888   -1.3101 C   0  0  0  0  0  0  0  0  0  0  0  0
   -1.2046    0.7017   -1.1250 O   0  0  0  0  0  0  0  0  0  0  0  0
    0.6252    0.4896   -2.6128 C   0  0  0  0  0  0  0  0  0  0  0  0
    1.9351    0.6334   -2.8690 C   0  0  0  0  0  0  0  0  0  0  0  0
    2.5425    0.3077   -4.1655 C   0  0  0  0  0  0  0  0  0  0  0  0
    3.5255    1.1655   -4.6858 C   0  0  0  0  0  0  0  0  0  0  0  0
    4.1497    0.8788   -5.9025 C   0  0  0  0  0  0  0  0  0  0  0  0
    3.7975   -0.2728   -6.5881 C   0  0  0  0  0  0  0  0  0  0  0  0
    4.4085   -0.5544   -7.7756 O   0  0  0  0  0  0  0  0  0  0  0  0
    2.8382   -1.1413   -6.0754 C   0  0  0  0  0  0  0  0  0  0  0  0
    2.5502   -2.2661   -6.7988 O   0  0  0  0  0  0  0  0  0  0  0  0
    2.2095   -0.8631   -4.8655 C   0  0  0  0  0  0  0  0  0  0  0  0
    1.5743    0.9131    1.9317 C   0  0  2  0  0  0  0  0  0  0  0  0
    2.8055    1.6014    1.6850 O   0  0  0  0  0  0  0  0  0  0  0  0
    1.8003   -0.6114    1.9748 C   0  0  1  0  0  0  0  0  0  0  0  0
    0.5617   -1.2055    2.4150 O   0  0  0  0  0  0  0  0  0  0  0  0
    0.6445   -2.5097    2.7690 C   0  0  0  0  0  0  0  0  0  0  0  0
    1.6702   -3.1685    2.8329 O   0  0  0  0  0  0  0  0  0  0  0  0
   -0.6825   -3.0752    3.0882 C   0  0  0  0  0  0  0  0  0  0  0  0
   -1.8373   -2.4023    2.9602 C   0  0  0  0  0  0  0  0  0  0  0  0
   -3.1604   -2.9757    3.2473 C   0  0  0  0  0  0  0  0  0  0  0  0
   -3.3761   -3.8724    4.3076 C   0  0  0  0  0  0  0  0  0  0  0  0
   -4.6544   -4.3747    4.5681 C   0  0  0  0  0  0  0  0  0  0  0  0
   -5.7157   -3.9702    3.7744 C   0  0  0  0  0  0  0  0  0  0  0  0
   -6.9641   -4.4595    4.0295 O   0  0  0  0  0  0  0  0  0  0  0  0
   -5.5205   -3.0711    2.7307 C   0  0  0  0  0  0  0  0  0  0  0  0
   -6.6130   -2.7091    1.9911 O   0  0  0  0  0  0  0  0  0  0  0  0
   -4.2516   -2.5659    2.4639 C   0  0  0  0  0  0  0  0  0  0  0  0
    2.2106   -1.1901    0.6222 C   0  0  0  0  0  0  0  0  0  0  0  0
    1.4788   -1.7781   -0.1630 O   0  0  0  0  0  0  0  0  0  0  0  0
    3.5152   -1.0243    0.3310 O   0  0  0  0  0  0  0  0  0  0  0  0
   -1.9408    4.0075   -0.9693 H   0  0  0  0  0  0  0  0  0  0  0  0
    0.0029    3.0643    2.2564 H   0  0  0  0  0  0  0  0  0  0  0  0
    1.0311    3.8677   -0.1924 H   0  0  0  0  0  0  0  0  0  0  0  0
   -0.4541    0.7595    1.1626 H   0  0  0  0  0  0  0  0  0  0  0  0
   -0.0729    0.1338   -3.3625 H   0  0  0  0  0  0  0  0  0  0  0  0
    2.6190    1.0171   -2.1146 H   0  0  0  0  0  0  0  0  0  0  0  0
    3.8097    2.0701   -4.1520 H   0  0  0  0  0  0  0  0  0  0  0  0
    4.9041    1.5459   -6.3084 H   0  0  0  0  0  0  0  0  0  0  0  0
    4.0102   -1.4002   -8.0629 H   0  0  0  0  0  0  0  0  0  0  0  0
    1.8840   -2.7814   -6.3118 H   0  0  0  0  0  0  0  0  0  0  0  0
    1.4763   -1.5527   -4.4586 H   0  0  0  0  0  0  0  0  0  0  0  0
    1.2631    1.2055    2.9436 H   0  0  0  0  0  0  0  0  0  0  0  0
    2.5927    2.5176    1.4060 H   0  0  0  0  0  0  0  0  0  0  0  0
    2.5923   -0.8407    2.6999 H   0  0  0  0  0  0  0  0  0  0  0  0
   -0.6495   -4.1100    3.4116 H   0  0  0  0  0  0  0  0  0  0  0  0
   -1.8469   -1.3775    2.5957 H   0  0  0  0  0  0  0  0  0  0  0  0
   -2.5573   -4.1838    4.9518 H   0  0  0  0  0  0  0  0  0  0  0  0
   -4.8195   -5.0696    5.3859 H   0  0  0  0  0  0  0  0  0  0  0  0
   -7.5344   -4.0380    3.3560 H   0  0  0  0  0  0  0  0  0  0  0  0
   -6.3227   -2.0784    1.3093 H   0  0  0  0  0  0  0  0  0  0  0  0
   -4.1006   -1.8639    1.6486 H   0  0  0  0  0  0  0  0  0  0  0  0
    3.6416   -1.4783   -0.5271 H   0  0  0  0  0  0  0  0  0  0  0  0
  1  2  1  0
  2  3  2  0
  2  4  1  0
  4  5  1  0
  4  6  1  0
  6  7  1  0
  7  8  1  0
  8  9  2  0
  8 10  1  0
 10 11  2  0
 11 12  1  0
 12 13  1  0
 13 14  2  0
 14 15  1  0
 15 16  1  0
 15 17  2  0
 17 18  1  0
 17 19  1  0
  6 20  1  0
 20 21  1  0
 20 22  1  0
 22 23  1  0
 23 24  1  0
 24 25  2  0
 24 26  1  0
 26 27  2  0
 27 28  1  0
 28 29  1  0
 29 30  2  0
 30 31  1  0
 31 32  1  0
 31 33  2  0
 33 34  1  0
 33 35  1  0
 22 36  1  0
 36 37  2  0
 36 38  1  0
 19 12  2  0
 35 28  2  0
  1 39  1  0
  4 40  1  1
  5 41  1  0
  6 42  1  1
 10 43  1  0
 11 44  1  0
 13 45  1  0
 14 46  1  0
 16 47  1  0
 18 48  1  0
 19 49  1  0
 20 50  1  1
 21 51  1  0
 22 52  1  1
 26 53  1  0
 27 54  1  0
 29 55  1  0
 30 56  1  0
 32 57  1  0
 34 58  1  0
 35 59  1  0
 38 60  1  0
M  END
>  <clase>  (33) 
Ác. Hidroxicinámico

>  <carga>  (33) 
0

>  <InChIKey>  (33) 
ZQGMKFHEDFDRLZ-BYCAZERCSA-N

>  <parte_planta>  (33) 
fruto

$$$$
Ácido Gálico
     RDKit          3D

 18 18  0  0  0  0  0  0  0  0999 V2000
   -1.7960    2.8472   -0.5249 O   0  0  0  0  0  0  0  0  0  0  0  0
   -0.9320    2.3474    0.3751 C   0  0  0  0  0  0  0  0  0  0  0  0
   -0.7118    2.9156    1.4285 O   0  0  0  0  0  0  0  0  0  0  0  0
   -0.3131    1.0742   -0.0640 C   0  0  0  0  0  0  0  0  0  0  0  0
    0.6076    0.4609    0.7994 C   0  0  0  0  0  0  0  0  0  0  0  0
    1.2049   -0.7338    0.4157 C   0  0  0  0  0  0  0  0  0  0  0  0
    2.1094   -1.3753    1.2179 O   0  0  0  0  0  0  0  0  0  0  0  0
    0.8961   -1.3197   -0.8116 C   0  0  0  0  0  0  0  0  0  0  0  0
    1.5032   -2.4962   -1.1566 O   0  0  0  0  0  0  0  0  0  0  0  0
   -0.0172   -0.7119   -1.6688 C   0  0  0  0  0  0  0  0  0  0  0  0
   -0.3087   -1.2987   -2.8672 O   0  0  0  0  0  0  0  0  0  0  0  0
   -0.6264    0.4870   -1.3007 C   0  0  0  0  0  0  0  0  0  0  0  0
   -2.1217    3.6734   -0.1087 H   0  0  0  0  0  0  0  0  0  0  0  0
    0.8435    0.9230    1.7542 H   0  0  0  0  0  0  0  0  0  0  0  0
    2.2249   -0.8557    2.0327 H   0  0  0  0  0  0  0  0  0  0  0  0
    2.0861   -2.7099   -0.4032 H   0  0  0  0  0  0  0  0  0  0  0  0
   -0.9562   -0.7586   -3.3456 H   0  0  0  0  0  0  0  0  0  0  0  0
   -1.3395    0.9655   -1.9653 H   0  0  0  0  0  0  0  0  0  0  0  0
  1  2  1  0
  2  3  2  0
  2  4  1  0
  4  5  1  0
  5  6  2  0
  6  7  1  0
  6  8  1  0
  8  9  1  0
  8 10  2  0
 10 11  1  0
 10 12  1  0
 12  4  2  0
  1 13  1  0
  5 14  1  0
  7 15  1  0
  9 16  1  0
 11 17  1  0
 12 18  1  0
M  END
>  <clase>  (34) 
Ác. Hidroxibenzoico

>  <carga>  (34) 
0

>  <InChIKey>  (34) 
LNTHITQWFMADLM-UHFFFAOYSA-N

>  <parte_planta>  (34) 
hojas|tallo

$$$$
Ácido Protocatéquico
     RDKit          3D

 17 17  0  0  0  0  0  0  0  0999 V2000
   -2.8358    1.3872   -1.1555 O   0  0  0  0  0  0  0  0  0  0  0  0
   -2.3731    0.5701   -0.1929 C   0  0  0  0  0  0  0  0  0  0  0  0
   -3.1245    0.0616    0.6178 O   0  0  0  0  0  0  0  0  0  0  0  0
   -0.9033    0.3849   -0.2535 C   0  0  0  0  0  0  0  0  0  0  0  0
   -0.1120    1.0284   -1.2200 C   0  0  0  0  0  0  0  0  0  0  0  0
    1.2704    0.8229   -1.2483 C   0  0  0  0  0  0  0  0  0  0  0  0
    1.8498   -0.0228   -0.3131 C   0  0  0  0  0  0  0  0  0  0  0  0
    3.1897   -0.2682   -0.3881 O   0  0  0  0  0  0  0  0  0  0  0  0
    1.0726   -0.6348    0.6667 C   0  0  0  0  0  0  0  0  0  0  0  0
    1.6568   -1.4021    1.6325 O   0  0  0  0  0  0  0  0  0  0  0  0
   -0.3034   -0.4530    0.6957 C   0  0  0  0  0  0  0  0  0  0  0  0
   -3.8024    1.4137   -0.9942 H   0  0  0  0  0  0  0  0  0  0  0  0
   -0.5644    1.6855   -1.9592 H   0  0  0  0  0  0  0  0  0  0  0  0
    1.8826    1.3057   -2.0046 H   0  0  0  0  0  0  0  0  0  0  0  0
    3.3084   -1.2052   -0.1455 H   0  0  0  0  0  0  0  0  0  0  0  0
    2.4956   -0.9605    1.8613 H   0  0  0  0  0  0  0  0  0  0  0  0
   -0.9004   -0.9449    1.4595 H   0  0  0  0  0  0  0  0  0  0  0  0
  1  2  1  0
  2  3  2  0
  2  4  1  0
  4  5  1  0
  5  6  2  0
  6  7  1  0
  7  8  1  0
  7  9  2  0
  9 10  1  0
  9 11  1  0
 11  4  2  0
  1 12  1  0
  5 13  1  0
  6 14  1  0
  8 15  1  0
 10 16  1  0
 11 17  1  0
M  END
>  <clase>  (35) 
Ác. Hidroxibenzoico

>  <carga>  (35) 
0

>  <InChIKey>  (35) 
YQUVCSBJEUQKSH-UHFFFAOYSA-N

>  <parte_planta>  (35) 
tallo

$$$$
Ácido Vanílico
     RDKit          3D

 20 20  0  0  0  0  0  0  0  0999 V2000
    1.1266    3.6200    0.0096 O   0  0  0  0  0  0  0  0  0  0  0  0
    0.8965    2.4586    0.6458 C   0  0  0  0  0  0  0  0  0  0  0  0
    0.9552    2.3781    1.8589 O   0  0  0  0  0  0  0  0  0  0  0  0
    0.5778    1.3446   -0.2802 C   0  0  0  0  0  0  0  0  0  0  0  0
    0.5318    1.5276   -1.6694 C   0  0  0  0  0  0  0  0  0  0  0  0
    0.2280    0.4519   -2.5025 C   0  0  0  0  0  0  0  0  0  0  0  0
   -0.0262   -0.7928   -1.9396 C   0  0  0  0  0  0  0  0  0  0  0  0
   -0.3219   -1.8311   -2.7802 O   0  0  0  0  0  0  0  0  0  0  0  0
    0.0143   -0.9980   -0.5549 C   0  0  0  0  0  0  0  0  0  0  0  0
   -0.2588   -2.2798   -0.1518 O   0  0  0  0  0  0  0  0  0  0  0  0
   -0.2272   -2.5279    1.2499 C   0  0  0  0  0  0  0  0  0  0  0  0
    0.3185    0.0799    0.2758 C   0  0  0  0  0  0  0  0  0  0  0  0
    1.3203    4.2532    0.7323 H   0  0  0  0  0  0  0  0  0  0  0  0
    0.7305    2.5010   -2.1111 H   0  0  0  0  0  0  0  0  0  0  0  0
    0.1892    0.5807   -3.5803 H   0  0  0  0  0  0  0  0  0  0  0  0
   -0.4637   -2.6001   -2.1942 H   0  0  0  0  0  0  0  0  0  0  0  0
   -0.9857   -1.9356    1.7723 H   0  0  0  0  0  0  0  0  0  0  0  0
   -0.4635   -3.5847    1.4068 H   0  0  0  0  0  0  0  0  0  0  0  0
    0.7715   -2.3452    1.6602 H   0  0  0  0  0  0  0  0  0  0  0  0
    0.3617   -0.0301    1.3552 H   0  0  0  0  0  0  0  0  0  0  0  0
  1  2  1  0
  2  3  2  0
  2  4  1  0
  4  5  1  0
  5  6  2  0
  6  7  1  0
  7  8  1  0
  7  9  2  0
  9 10  1  0
 10 11  1  0
  9 12  1  0
 12  4  2  0
  1 13  1  0
  5 14  1  0
  6 15  1  0
  8 16  1  0
 11 17  1  0
 11 18  1  0
 11 19  1  0
 12 20  1  0
M  END
>  <clase>  (36) 
Ác. Hidroxibenzoico

>  <carga>  (36) 
0

>  <InChIKey>  (36) 
WKOLLVMJNQIZCI-UHFFFAOYSA-N

>  <parte_planta>  (36) 
tallo

$$$$
Ácido Elágico
     RDKit          3D

 28 31  0  0  0  0  0  0  0  0999 V2000
   -3.4516   -0.5646    1.2828 O   0  0  0  0  0  0  0  0  0  0  0  0
   -2.2860   -0.4221    0.9403 C   0  0  0  0  0  0  0  0  0  0  0  0
   -1.2474   -0.4072    1.8772 O   0  0  0  0  0  0  0  0  0  0  0  0
    0.1071   -0.2450    1.5178 C   0  0  0  0  0  0  0  0  0  0  0  0
    1.0684   -0.2433    2.5186 C   0  0  0  0  0  0  0  0  0  0  0  0
    0.7462   -0.3932    3.8374 O   0  0  0  0  0  0  0  0  0  0  0  0
    2.4073   -0.0841    2.1747 C   0  0  0  0  0  0  0  0  0  0  0  0
    3.3654   -0.0800    3.1461 O   0  0  0  0  0  0  0  0  0  0  0  0
    2.7932    0.0727    0.8465 C   0  0  0  0  0  0  0  0  0  0  0  0
    1.8128    0.0692   -0.1547 C   0  0  0  0  0  0  0  0  0  0  0  0
    2.1982    0.2348   -1.5802 C   0  0  0  0  0  0  0  0  0  0  0  0
    3.3638    0.3774   -1.9228 O   0  0  0  0  0  0  0  0  0  0  0  0
    1.1596    0.2199   -2.5171 O   0  0  0  0  0  0  0  0  0  0  0  0
   -0.1949    0.0578   -2.1577 C   0  0  0  0  0  0  0  0  0  0  0  0
   -1.1562    0.0561   -3.1586 C   0  0  0  0  0  0  0  0  0  0  0  0
   -0.8340    0.2060   -4.4773 O   0  0  0  0  0  0  0  0  0  0  0  0
   -2.4951   -0.1032   -2.8146 C   0  0  0  0  0  0  0  0  0  0  0  0
   -3.4532   -0.1072   -3.7861 O   0  0  0  0  0  0  0  0  0  0  0  0
   -2.8809   -0.2600   -1.4865 C   0  0  0  0  0  0  0  0  0  0  0  0
   -1.9005   -0.2565   -0.4853 C   0  0  0  0  0  0  0  0  0  0  0  0
   -0.5539   -0.0970   -0.8238 C   0  0  0  0  0  0  0  0  0  0  0  0
    0.4661   -0.0903    0.1838 C   0  0  0  0  0  0  0  0  0  0  0  0
   -0.2250   -0.4908    3.8881 H   0  0  0  0  0  0  0  0  0  0  0  0
    2.8827   -0.2023    3.9888 H   0  0  0  0  0  0  0  0  0  0  0  0
    3.8454    0.1958    0.5993 H   0  0  0  0  0  0  0  0  0  0  0  0
    0.1372    0.3035   -4.5281 H   0  0  0  0  0  0  0  0  0  0  0  0
   -2.9704    0.0151   -4.6288 H   0  0  0  0  0  0  0  0  0  0  0  0
   -3.9332   -0.3830   -1.2392 H   0  0  0  0  0  0  0  0  0  0  0  0
  1  2  2  0
  2  3  1  0
  3  4  1  0
  4  5  2  0
  5  6  1  0
  5  7  1  0
  7  8  1  0
  7  9  2  0
  9 10  1  0
 10 11  1  0
 11 12  2  0
 11 13  1  0
 13 14  1  0
 14 15  1  0
 15 16  1  0
 15 17  2  0
 17 18  1  0
 17 19  1  0
 19 20  2  0
 20 21  1  0
 21 22  1  0
 20  2  1  0
 22  4  1  0
 22 10  2  0
 21 14  2  0
  6 23  1  0
  8 24  1  0
  9 25  1  0
 16 26  1  0
 18 27  1  0
 19 28  1  0
M  END
>  <clase>  (37) 
Ác. Hidroxibenzoico

>  <carga>  (37) 
0

>  <InChIKey>  (37) 
AFSDNFLWKVMVRB-UHFFFAOYSA-N

>  <parte_planta>  (37) 
fruto|tallo

$$$$
Procianidina B1
     RDKit          3D

 68 73  0  0  0  0  0  0  0  0999 V2000
   -1.0803   -0.0483   -1.8038 O   0  0  0  0  0  0  0  0  0  0  0  0
   -0.8159    1.1191   -1.0402 C   0  0  2  0  0  0  0  0  0  0  0  0
    0.1781    2.0511   -1.7737 C   0  0  2  0  0  0  0  0  0  0  0  0
    1.5611    1.4600   -2.0733 C   0  0  0  0  0  0  0  0  0  0  0  0
    2.7373    1.9655   -1.4828 C   0  0  0  0  0  0  0  0  0  0  0  0
    3.9904    1.4033   -1.7548 C   0  0  0  0  0  0  0  0  0  0  0  0
    4.0763    0.3304   -2.6293 C   0  0  0  0  0  0  0  0  0  0  0  0
    5.2697   -0.2644   -2.9323 O   0  0  0  0  0  0  0  0  0  0  0  0
    2.9292   -0.1729   -3.2313 C   0  0  0  0  0  0  0  0  0  0  0  0
    3.0212   -1.2278   -4.0944 O   0  0  0  0  0  0  0  0  0  0  0  0
    1.6830    0.3811   -2.9676 C   0  0  0  0  0  0  0  0  0  0  0  0
    0.2797    3.3191   -1.1175 O   0  0  0  0  0  0  0  0  0  0  0  0
    0.1261    3.3498    0.2463 C   0  0  0  0  0  0  0  0  0  0  0  0
    0.3321    4.6292    0.7813 C   0  0  0  0  0  0  0  0  0  0  0  0
    0.2249    4.8372    2.1431 C   0  0  0  0  0  0  0  0  0  0  0  0
    0.4497    6.0912    2.6244 O   0  0  0  0  0  0  0  0  0  0  0  0
   -0.1167    3.7883    2.9758 C   0  0  0  0  0  0  0  0  0  0  0  0
   -0.3474    2.5190    2.4315 C   0  0  0  0  0  0  0  0  0  0  0  0
   -0.7843    1.6049    3.3445 O   0  0  0  0  0  0  0  0  0  0  0  0
   -0.2085    2.2410    1.0611 C   0  0  0  0  0  0  0  0  0  0  0  0
   -0.2843    0.8504    0.3910 C   0  0  1  0  0  0  0  0  0  0  0  0
   -0.9267   -0.3906    1.1342 C   0  0  2  0  0  0  0  0  0  0  0  0
   -0.0968   -1.7016    1.0599 C   0  0  2  0  0  0  0  0  0  0  0  0
    1.3007   -1.4387    1.2360 O   0  0  0  0  0  0  0  0  0  0  0  0
   -0.3867   -2.4809   -0.2304 C   0  0  1  0  0  0  0  0  0  0  0  0
    0.3291   -3.8304   -0.2333 C   0  0  0  0  0  0  0  0  0  0  0  0
    1.5351   -3.9805   -0.9461 C   0  0  0  0  0  0  0  0  0  0  0  0
    2.2190   -5.1999   -0.9546 C   0  0  0  0  0  0  0  0  0  0  0  0
    1.6974   -6.2726   -0.2435 C   0  0  0  0  0  0  0  0  0  0  0  0
    2.3205   -7.4903   -0.2127 O   0  0  0  0  0  0  0  0  0  0  0  0
    0.5095   -6.1340    0.4695 C   0  0  0  0  0  0  0  0  0  0  0  0
    0.0084   -7.1957    1.1684 O   0  0  0  0  0  0  0  0  0  0  0  0
   -0.1771   -4.9280    0.4830 C   0  0  0  0  0  0  0  0  0  0  0  0
   -1.7845   -2.7494   -0.4238 O   0  0  0  0  0  0  0  0  0  0  0  0
   -2.6881   -1.8356    0.0419 C   0  0  0  0  0  0  0  0  0  0  0  0
   -4.0166   -2.1293   -0.2816 C   0  0  0  0  0  0  0  0  0  0  0  0
   -5.0334   -1.2890    0.1498 C   0  0  0  0  0  0  0  0  0  0  0  0
   -6.3400   -1.5407   -0.1479 O   0  0  0  0  0  0  0  0  0  0  0  0
   -4.7481   -0.1648    0.9103 C   0  0  0  0  0  0  0  0  0  0  0  0
   -3.4222    0.1190    1.2367 C   0  0  0  0  0  0  0  0  0  0  0  0
   -3.1467    1.2074    2.0203 O   0  0  0  0  0  0  0  0  0  0  0  0
   -2.3688   -0.6986    0.7999 C   0  0  0  0  0  0  0  0  0  0  0  0
   -1.6618    0.2011   -2.5434 H   0  0  0  0  0  0  0  0  0  0  0  0
   -1.7773    1.6456   -0.9495 H   0  0  0  0  0  0  0  0  0  0  0  0
   -0.2525    2.2756   -2.7593 H   0  0  0  0  0  0  0  0  0  0  0  0
    2.6935    2.8066   -0.7939 H   0  0  0  0  0  0  0  0  0  0  0  0
    4.8713    1.8168   -1.2749 H   0  0  0  0  0  0  0  0  0  0  0  0
    5.9637    0.1848   -2.4195 H   0  0  0  0  0  0  0  0  0  0  0  0
    3.9778   -1.4282   -4.1270 H   0  0  0  0  0  0  0  0  0  0  0  0
    0.8123   -0.0421   -3.4601 H   0  0  0  0  0  0  0  0  0  0  0  0
    0.5894    5.4581    0.1271 H   0  0  0  0  0  0  0  0  0  0  0  0
    0.3782    6.0697    3.5932 H   0  0  0  0  0  0  0  0  0  0  0  0
   -0.2306    3.9338    4.0455 H   0  0  0  0  0  0  0  0  0  0  0  0
   -1.6859    1.3632    3.0369 H   0  0  0  0  0  0  0  0  0  0  0  0
    0.7757    0.5892    0.2990 H   0  0  0  0  0  0  0  0  0  0  0  0
   -0.8906   -0.2122    2.2050 H   0  0  0  0  0  0  0  0  0  0  0  0
   -0.3999   -2.3336    1.9083 H   0  0  0  0  0  0  0  0  0  0  0  0
    1.4140   -1.0668    2.1287 H   0  0  0  0  0  0  0  0  0  0  0  0
   -0.0157   -1.9364   -1.1022 H   0  0  0  0  0  0  0  0  0  0  0  0
    1.9500   -3.1354   -1.4952 H   0  0  0  0  0  0  0  0  0  0  0  0
    3.1450   -5.2831   -1.5134 H   0  0  0  0  0  0  0  0  0  0  0  0
    3.1234   -7.4248   -0.7575 H   0  0  0  0  0  0  0  0  0  0  0  0
    0.6516   -7.9139    1.0060 H   0  0  0  0  0  0  0  0  0  0  0  0
   -1.1032   -4.8470    1.0450 H   0  0  0  0  0  0  0  0  0  0  0  0
   -4.2304   -3.0174   -0.8689 H   0  0  0  0  0  0  0  0  0  0  0  0
   -6.3874   -2.3710   -0.6522 H   0  0  0  0  0  0  0  0  0  0  0  0
   -5.5664    0.4635    1.2471 H   0  0  0  0  0  0  0  0  0  0  0  0
   -3.9712    1.7197    2.1195 H   0  0  0  0  0  0  0  0  0  0  0  0
  1  2  1  0
  2  3  1  0
  3  4  1  0
  4  5  1  0
  5  6  2  0
  6  7  1  0
  7  8  1  0
  7  9  2  0
  9 10  1  0
  9 11  1  0
  3 12  1  0
 12 13  1  0
 13 14  2  0
 14 15  1  0
 15 16  1  0
 15 17  2  0
 17 18  1  0
 18 19  1  0
 18 20  2  0
 20 21  1  0
 21 22  1  0
 22 23  1  0
 23 24  1  0
 23 25  1  0
 25 26  1  0
 26 27  1  0
 27 28  2  0
 28 29  1  0
 29 30  1  0
 29 31  2  0
 31 32  1  0
 31 33  1  0
 25 34  1  0
 34 35  1  0
 35 36  2  0
 36 37  1  0
 37 38  1  0
 37 39  2  0
 39 40  1  0
 40 41  1  0
 40 42  2  0
 21  2  1  0
 42 22  1  0
 11  4  2  0
 20 13  1  0
 33 26  2  0
 42 35  1  0
  1 43  1  0
  2 44  1  1
  3 45  1  6
  5 46  1  0
  6 47  1  0
  8 48  1  0
 10 49  1  0
 11 50  1  0
 14 51  1  0
 16 52  1  0
 17 53  1  0
 19 54  1  0
 21 55  1  6
 22 56  1  1
 23 57  1  1
 24 58  1  0
 25 59  1  6
 27 60  1  0
 28 61  1  0
 30 62  1  0
 32 63  1  0
 33 64  1  0
 36 65  1  0
 38 66  1  0
 39 67  1  0
 41 68  1  0
M  END
>  <clase>  (38) 
Tanino Condensado

>  <carga>  (38) 
0

>  <InChIKey>  (38) 
UPSCCKSYXWBZPX-FSIJYMTBSA-N

>  <parte_planta>  (38) 
fruto|tallo

$$$$
Procianidina B2
     RDKit          3D

 68 73  0  0  0  0  0  0  0  0999 V2000
   -2.5451    0.5265   -0.7160 O   0  0  0  0  0  0  0  0  0  0  0  0
   -1.1109    0.4525   -0.7805 C   0  0  1  0  0  0  0  0  0  0  0  0
   -0.6447    1.5115   -1.7997 C   0  0  2  0  0  0  0  0  0  0  0  0
    0.7623    1.2389   -2.3233 C   0  0  0  0  0  0  0  0  0  0  0  0
    1.8639    2.0439   -1.9785 C   0  0  0  0  0  0  0  0  0  0  0  0
    3.1501    1.7439   -2.4418 C   0  0  0  0  0  0  0  0  0  0  0  0
    3.3368    0.6314   -3.2497 C   0  0  0  0  0  0  0  0  0  0  0  0
    4.5668    0.2771   -3.7278 O   0  0  0  0  0  0  0  0  0  0  0  0
    2.2559   -0.1701   -3.5995 C   0  0  0  0  0  0  0  0  0  0  0  0
    2.4530   -1.2789   -4.3743 O   0  0  0  0  0  0  0  0  0  0  0  0
    0.9755    0.1272   -3.1574 C   0  0  0  0  0  0  0  0  0  0  0  0
   -0.7980    2.8634   -1.3501 O   0  0  0  0  0  0  0  0  0  0  0  0
   -0.9386    3.1046   -0.0087 C   0  0  0  0  0  0  0  0  0  0  0  0
   -1.2074    4.4497    0.2772 C   0  0  0  0  0  0  0  0  0  0  0  0
   -1.3016    4.8666    1.5926 C   0  0  0  0  0  0  0  0  0  0  0  0
   -1.5647    6.1633    1.9168 O   0  0  0  0  0  0  0  0  0  0  0  0
   -1.1079    3.9649    2.6237 C   0  0  0  0  0  0  0  0  0  0  0  0
   -0.8353    2.6235    2.3307 C   0  0  0  0  0  0  0  0  0  0  0  0
   -0.6141    1.7848    3.3878 O   0  0  0  0  0  0  0  0  0  0  0  0
   -0.7858    2.1424    1.0139 C   0  0  0  0  0  0  0  0  0  0  0  0
   -0.4416    0.7157    0.5922 C   0  0  1  0  0  0  0  0  0  0  0  0
   -0.5153   -0.5290    1.5706 C   0  0  2  0  0  0  0  0  0  0  0  0
    0.6183   -1.5522    1.1909 C   0  0  1  0  0  0  0  0  0  0  0  0
    1.5375   -1.6609    2.2975 O   0  0  0  0  0  0  0  0  0  0  0  0
    0.0983   -2.9554    0.8098 C   0  0  2  0  0  0  0  0  0  0  0  0
    1.1069   -3.7268   -0.0320 C   0  0  0  0  0  0  0  0  0  0  0  0
    1.8526   -4.7693    0.5522 C   0  0  0  0  0  0  0  0  0  0  0  0
    2.7839   -5.4916   -0.1974 C   0  0  0  0  0  0  0  0  0  0  0  0
    2.9774   -5.1662   -1.5297 C   0  0  0  0  0  0  0  0  0  0  0  0
    3.8875   -5.8705   -2.2652 O   0  0  0  0  0  0  0  0  0  0  0  0
    2.2622   -4.1295   -2.1215 C   0  0  0  0  0  0  0  0  0  0  0  0
    2.5222   -3.8550   -3.4358 O   0  0  0  0  0  0  0  0  0  0  0  0
    1.3245   -3.4118   -1.3868 C   0  0  0  0  0  0  0  0  0  0  0  0
   -1.1259   -2.8667    0.0723 O   0  0  0  0  0  0  0  0  0  0  0  0
   -2.1046   -2.3563    0.8840 C   0  0  0  0  0  0  0  0  0  0  0  0
   -3.3457   -2.9875    0.8407 C   0  0  0  0  0  0  0  0  0  0  0  0
   -4.3643   -2.5234    1.6553 C   0  0  0  0  0  0  0  0  0  0  0  0
   -5.5658   -3.1639    1.6054 O   0  0  0  0  0  0  0  0  0  0  0  0
   -4.1520   -1.4422    2.4998 C   0  0  0  0  0  0  0  0  0  0  0  0
   -2.9101   -0.7998    2.5092 C   0  0  0  0  0  0  0  0  0  0  0  0
   -2.8144    0.2380    3.3872 O   0  0  0  0  0  0  0  0  0  0  0  0
   -1.8624   -1.2240    1.6828 C   0  0  0  0  0  0  0  0  0  0  0  0
   -2.8952   -0.3150   -0.3808 H   0  0  0  0  0  0  0  0  0  0  0  0
   -0.8594   -0.5447   -1.1544 H   0  0  0  0  0  0  0  0  0  0  0  0
   -1.3095    1.4504   -2.6725 H   0  0  0  0  0  0  0  0  0  0  0  0
    1.7304    2.9153   -1.3395 H   0  0  0  0  0  0  0  0  0  0  0  0
    3.9793    2.3842   -2.1579 H   0  0  0  0  0  0  0  0  0  0  0  0
    5.2220    0.9027   -3.3718 H   0  0  0  0  0  0  0  0  0  0  0  0
    3.4028   -1.2259   -4.6206 H   0  0  0  0  0  0  0  0  0  0  0  0
    0.1474   -0.5086   -3.4611 H   0  0  0  0  0  0  0  0  0  0  0  0
   -1.3287    5.1495   -0.5441 H   0  0  0  0  0  0  0  0  0  0  0  0
   -1.7354    6.6584    1.0975 H   0  0  0  0  0  0  0  0  0  0  0  0
   -1.1745    4.3206    3.6475 H   0  0  0  0  0  0  0  0  0  0  0  0
   -0.4367    2.3297    4.1783 H   0  0  0  0  0  0  0  0  0  0  0  0
    0.6384    0.8239    0.4117 H   0  0  0  0  0  0  0  0  0  0  0  0
   -0.2446   -0.2102    2.5768 H   0  0  0  0  0  0  0  0  0  0  0  0
    1.2182   -1.1531    0.3658 H   0  0  0  0  0  0  0  0  0  0  0  0
    1.0492   -2.0075    3.0654 H   0  0  0  0  0  0  0  0  0  0  0  0
   -0.0850   -3.5477    1.7197 H   0  0  0  0  0  0  0  0  0  0  0  0
    1.7130   -5.0293    1.5994 H   0  0  0  0  0  0  0  0  0  0  0  0
    3.3531   -6.2979    0.2545 H   0  0  0  0  0  0  0  0  0  0  0  0
    3.8257   -5.4771   -3.1588 H   0  0  0  0  0  0  0  0  0  0  0  0
    2.1314   -2.9836   -3.6572 H   0  0  0  0  0  0  0  0  0  0  0  0
    0.7533   -2.6190   -1.8580 H   0  0  0  0  0  0  0  0  0  0  0  0
   -3.5089   -3.8429    0.1916 H   0  0  0  0  0  0  0  0  0  0  0  0
   -6.1809   -2.7206    2.2138 H   0  0  0  0  0  0  0  0  0  0  0  0
   -4.9382   -1.0769    3.1540 H   0  0  0  0  0  0  0  0  0  0  0  0
   -1.9676    0.7058    3.2627 H   0  0  0  0  0  0  0  0  0  0  0  0
  1  2  1  0
  2  3  1  0
  3  4  1  0
  4  5  1  0
  5  6  2  0
  6  7  1  0
  7  8  1  0
  7  9  2  0
  9 10  1  0
  9 11  1  0
  3 12  1  0
 12 13  1  0
 13 14  2  0
 14 15  1  0
 15 16  1  0
 15 17  2  0
 17 18  1  0
 18 19  1  0
 18 20  2  0
 20 21  1  0
 21 22  1  0
 22 23  1  0
 23 24  1  0
 23 25  1  0
 25 26  1  0
 26 27  1  0
 27 28  2  0
 28 29  1  0
 29 30  1  0
 29 31  2  0
 31 32  1  0
 31 33  1  0
 25 34  1  0
 34 35  1  0
 35 36  2  0
 36 37  1  0
 37 38  1  0
 37 39  2  0
 39 40  1  0
 40 41  1  0
 40 42  2  0
 21  2  1  0
 42 22  1  0
 11  4  2  0
 20 13  1  0
 33 26  2  0
 42 35  1  0
  1 43  1  0
  2 44  1  6
  3 45  1  6
  5 46  1  0
  6 47  1  0
  8 48  1  0
 10 49  1  0
 11 50  1  0
 14 51  1  0
 16 52  1  0
 17 53  1  0
 19 54  1  0
 21 55  1  6
 22 56  1  1
 23 57  1  6
 24 58  1  0
 25 59  1  1
 27 60  1  0
 28 61  1  0
 30 62  1  0
 32 63  1  0
 33 64  1  0
 36 65  1  0
 38 66  1  0
 39 67  1  0
 41 68  1  0
M  END
>  <clase>  (39) 
Tanino Condensado

>  <carga>  (39) 
0

>  <InChIKey>  (39) 
UPSCCKSYXWBZPX-KWKLTRBOSA-N

>  <parte_planta>  (39) 
fruto|hojas|tallo

$$$$
Berberina (*alcaloide, no polifenol)
     RDKit          3D

 43 47  0  0  0  0  0  0  0  0999 V2000
    2.0748    4.5823    3.0002 C   0  0  0  0  0  0  0  0  0  0  0  0
    1.1884    4.1916    1.9574 O   0  0  0  0  0  0  0  0  0  0  0  0
    0.9541    2.8581    1.7664 C   0  0  0  0  0  0  0  0  0  0  0  0
    1.5042    1.8561    2.5707 C   0  0  0  0  0  0  0  0  0  0  0  0
    1.2759    0.5059    2.2913 C   0  0  0  0  0  0  0  0  0  0  0  0
    0.4989    0.1242    1.1920 C   0  0  0  0  0  0  0  0  0  0  0  0
    0.2797   -1.2232    0.8895 C   0  0  0  0  0  0  0  0  0  0  0  0
   -0.4949   -1.5944   -0.2191 C   0  0  0  0  0  0  0  0  0  0  0  0
   -1.0174   -0.6165   -1.0117 N   0  0  0  0  0  0  0  0  0  0  0  0
   -0.8253    0.6924   -0.7224 C   0  0  0  0  0  0  0  0  0  0  0  0
   -0.0679    1.1134    0.3755 C   0  0  0  0  0  0  0  0  0  0  0  0
    0.1374    2.4843    0.6810 C   0  0  0  0  0  0  0  0  0  0  0  0
   -0.4716    3.3555   -0.1966 O   0  0  0  0  0  0  0  0  0  0  0  0
   -0.9316    4.5954    0.3396 C   0  0  0  0  0  0  0  0  0  0  0  0
   -1.8621   -0.9544   -2.1876 C   0  0  0  0  0  0  0  0  0  0  0  0
   -1.2713   -2.1396   -2.9298 C   0  0  0  0  0  0  0  0  0  0  0  0
   -1.1266   -3.2838   -1.9652 C   0  0  0  0  0  0  0  0  0  0  0  0
   -1.3304   -4.6027   -2.4041 C   0  0  0  0  0  0  0  0  0  0  0  0
   -1.1954   -5.6128   -1.4812 C   0  0  0  0  0  0  0  0  0  0  0  0
   -1.3653   -6.9382   -1.7202 O   0  0  0  0  0  0  0  0  0  0  0  0
   -1.1023   -7.4908   -0.4119 C   0  0  0  0  0  0  0  0  0  0  0  0
   -0.7910   -6.4817    0.5752 O   0  0  0  0  0  0  0  0  0  0  0  0
   -0.8677   -5.3519   -0.1763 C   0  0  0  0  0  0  0  0  0  0  0  0
   -0.6454   -4.0676    0.2817 C   0  0  0  0  0  0  0  0  0  0  0  0
   -0.7578   -2.9917   -0.6209 C   0  0  0  0  0  0  0  0  0  0  0  0
    1.6766    4.3002    3.9802 H   0  0  0  0  0  0  0  0  0  0  0  0
    2.1573    5.6732    2.9760 H   0  0  0  0  0  0  0  0  0  0  0  0
    3.0764    4.1689    2.8430 H   0  0  0  0  0  0  0  0  0  0  0  0
    2.1304    2.0905    3.4273 H   0  0  0  0  0  0  0  0  0  0  0  0
    1.7285   -0.2405    2.9439 H   0  0  0  0  0  0  0  0  0  0  0  0
    0.7372   -1.9862    1.5168 H   0  0  0  0  0  0  0  0  0  0  0  0
   -1.2933    1.4118   -1.3902 H   0  0  0  0  0  0  0  0  0  0  0  0
   -0.1411    5.3496    0.2914 H   0  0  0  0  0  0  0  0  0  0  0  0
   -1.7507    4.9430   -0.2979 H   0  0  0  0  0  0  0  0  0  0  0  0
   -1.3302    4.4887    1.3543 H   0  0  0  0  0  0  0  0  0  0  0  0
   -2.8644   -1.1616   -1.7932 H   0  0  0  0  0  0  0  0  0  0  0  0
   -1.9138   -0.0864   -2.8529 H   0  0  0  0  0  0  0  0  0  0  0  0
   -0.2848   -1.8919   -3.3388 H   0  0  0  0  0  0  0  0  0  0  0  0
   -1.9298   -2.4107   -3.7624 H   0  0  0  0  0  0  0  0  0  0  0  0
   -1.5923   -4.8376   -3.4317 H   0  0  0  0  0  0  0  0  0  0  0  0
   -1.9873   -8.0456   -0.0799 H   0  0  0  0  0  0  0  0  0  0  0  0
   -0.2559   -8.1832   -0.4857 H   0  0  0  0  0  0  0  0  0  0  0  0
   -0.3954   -3.9343    1.3298 H   0  0  0  0  0  0  0  0  0  0  0  0
  1  2  1  0
  2  3  1  0
  3  4  2  0
  4  5  1  0
  5  6  2  0
  6  7  1  0
  7  8  2  0
  8  9  1  0
  9 10  2  0
 10 11  1  0
 11 12  2  0
 12 13  1  0
 13 14  1  0
  9 15  1  0
 15 16  1  0
 16 17  1  0
 17 18  1  0
 18 19  2  0
 19 20  1  0
 20 21  1  0
 21 22  1  0
 22 23  1  0
 23 24  2  0
 24 25  1  0
 12  3  1  0
 25 17  2  0
 11  6  1  0
 23 19  1  0
 25  8  1  0
  1 26  1  0
  1 27  1  0
  1 28  1  0
  4 29  1  0
  5 30  1  0
  7 31  1  0
 10 32  1  0
 14 33  1  0
 14 34  1  0
 14 35  1  0
 15 36  1  0
 15 37  1  0
 16 38  1  0
 16 39  1  0
 18 40  1  0
 21 41  1  0
 21 42  1  0
 24 43  1  0
M  CHG  1   9   1
M  END
>  <clase>  (40) 
Alcaloide isoquinolínico

>  <carga>  (40) 
1

>  <InChIKey>  (40) 
YBHILYKTIRIUTE-UHFFFAOYSA-N

>  <parte_planta>  (40) 
tallo

$$$$
